* HSPICE Data File for Plotting Id-Vg and Id-Vd Curves in WaveView
.option post=2 ingold=2 numdgt=10

* Independent time source for simulation
VTIME time 0 PWL(0 0 1 1)

* Data table for Id-Vg at Vd = 0.01V
.param vg_data_vd0.01=[ \
+ 0.010000, + 0.020000, + 0.030000, + 0.040000, + 0.050000, + 0.060000, + 0.070000, + 0.080000, + 0.090000, + 0.100000,  \
+ 0.110000, + 0.120000, + 0.130000, + 0.140000, + 0.150000, + 0.160000, + 0.170000, + 0.180000, + 0.190000, + 0.200000,  \
+ 0.210000, + 0.220000, + 0.230000, + 0.240000, + 0.250000, + 0.260000, + 0.270000, + 0.280000, + 0.290000, + 0.300000,  \
+ 0.310000, + 0.320000, + 0.330000, + 0.340000, + 0.350000, + 0.360000, + 0.370000, + 0.380000, + 0.390000, + 0.400000,  \
+ 0.410000, + 0.420000, + 0.430000, + 0.440000, + 0.450000, + 0.460000, + 0.470000, + 0.480000, + 0.490000, + 0.500000,  \
+ 0.510000, + 0.520000, + 0.530000, + 0.540000, + 0.550000, + 0.560000, + 0.570000, + 0.580000, + 0.590000, + 0.600000,  \
+ 0.610000, + 0.620000, + 0.630000, + 0.640000, + 0.650000, + 0.660000, + 0.670000, + 0.680000, + 0.690000, + 0.700000,  \
+ 0.710000, + 0.720000, + 0.730000, + 0.740000, + 0.750000, + 0.760000, + 0.770000, + 0.780000, + 0.790000, + 0.800000 ]

.param id_actual_data_vd0.01=[ \
+ 8.817320000000e-11, + 1.286390000000e-10, + 1.876680000000e-10, + 2.737690000000e-10, + 3.993390000000e-10,  \
+ 5.824360000000e-10, + 8.493340000000e-10, + 1.238200000000e-09, + 1.804500000000e-09, + 2.628400000000e-09,  \
+ 3.825400000000e-09, + 5.561200000000e-09, + 8.071600000000e-09, + 1.168790000000e-08, + 1.686830000000e-08,  \
+ 2.423110000000e-08, + 3.458240000000e-08, + 4.892220000000e-08, + 6.840530000000e-08, + 9.423290000000e-08,  \
+ 1.274660000000e-07, + 1.687960000000e-07, + 2.183400000000e-07, + 2.755740000000e-07, + 3.394150000000e-07,  \
+ 4.084390000000e-07, + 4.811210000000e-07, + 5.560310000000e-07, + 6.319470000000e-07, + 7.078840000000e-07,  \
+ 7.830880000000e-07, + 8.570000000000e-07, + 9.292130000000e-07, + 9.994420000000e-07, + 1.067500000000e-06,  \
+ 1.133200000000e-06, + 1.196600000000e-06, + 1.257500000000e-06, + 1.316000000000e-06, + 1.372100000000e-06,  \
+ 1.425800000000e-06, + 1.477200000000e-06, + 1.526300000000e-06, + 1.573200000000e-06, + 1.618000000000e-06,  \
+ 1.660700000000e-06, + 1.701500000000e-06, + 1.740400000000e-06, + 1.777500000000e-06, + 1.812900000000e-06,  \
+ 1.846600000000e-06, + 1.878800000000e-06, + 1.909500000000e-06, + 1.938900000000e-06, + 1.966800000000e-06,  \
+ 1.993600000000e-06, + 2.019100000000e-06, + 2.043500000000e-06, + 2.066800000000e-06, + 2.089000000000e-06,  \
+ 2.110400000000e-06, + 2.130700000000e-06, + 2.150300000000e-06, + 2.168900000000e-06, + 2.186800000000e-06,  \
+ 2.204000000000e-06, + 2.220400000000e-06, + 2.236200000000e-06, + 2.251400000000e-06, + 2.265900000000e-06,  \
+ 2.279900000000e-06, + 2.293300000000e-06, + 2.306100000000e-06, + 2.318500000000e-06, + 2.330500000000e-06,  \
+ 2.341900000000e-06, + 2.353000000000e-06, + 2.363600000000e-06, + 2.373800000000e-06, + 2.383700000000e-06 ]

.param id_pred_data_vd0.01=[ \
+ 8.691662500837e-11, + 1.277592787119e-10, + 1.880239075547e-10, + 2.764217832407e-10, + 4.053875102272e-10,  \
+ 5.927359936209e-10, + 8.640822102279e-10, + 1.256348838297e-09, + 1.822785691274e-09, + 2.640145453370e-09,  \
+ 3.818819322987e-09, + 5.517154022527e-09, + 7.961099299791e-09, + 1.146998670265e-08, + 1.648744500926e-08,  \
+ 2.361348151680e-08, + 3.362896677572e-08, + 4.749799700221e-08, + 6.633278644586e-08, + 9.130706530414e-08,  \
+ 1.235211311723e-07, + 1.638347202970e-07, + 2.127103289240e-07, + 2.701012999751e-07, + 3.354234286235e-07,  \
+ 4.076106051798e-07, + 4.852415804635e-07, + 5.667030200129e-07, + 6.503488111775e-07, + 7.346443453571e-07,  \
+ 8.182539022528e-07, + 9.000972931972e-07, + 9.793627395993e-07, + 1.055493412423e-06, + 1.128153744503e-06,  \
+ 1.197192468680e-06, + 1.262591831619e-06, + 1.324447366642e-06, + 1.382917980663e-06, + 1.438197796233e-06,  \
+ 1.490507129347e-06, + 1.540072262287e-06, + 1.587107253727e-06, + 1.631817576708e-06, + 1.674392406130e-06,  \
+ 1.714990648907e-06, + 1.753766118782e-06, + 1.790846145013e-06, + 1.826332882047e-06, + 1.860323245637e-06,  \
+ 1.892898144433e-06, + 1.924123062054e-06, + 1.954048930202e-06, + 1.982726535061e-06, + 2.010194730246e-06,  \
+ 2.036487130681e-06, + 2.061634586425e-06, + 2.085659943987e-06, + 2.108589542331e-06, + 2.130443899659e-06,  \
+ 2.151242224500e-06, + 2.171011292376e-06, + 2.189765073126e-06, + 2.207524812547e-06, + 2.224314666819e-06,  \
+ 2.240150934085e-06, + 2.255063009216e-06, + 2.269070246257e-06, + 2.282193454448e-06, + 2.294464648003e-06,  \
+ 2.305899979547e-06, + 2.316530444659e-06, + 2.326384565094e-06, + 2.335485332878e-06, + 2.343859378016e-06,  \
+ 2.351536677452e-06, + 2.358541823924e-06, + 2.364902320551e-06, + 2.370651345700e-06, + 2.375804906478e-06 ]

* Data table for Id-Vg at Vd = 0.02V
.param vg_data_vd0.02=[ \
+ 0.010000, + 0.020000, + 0.030000, + 0.040000, + 0.050000, + 0.060000, + 0.070000, + 0.080000, + 0.090000, + 0.100000,  \
+ 0.110000, + 0.120000, + 0.130000, + 0.140000, + 0.150000, + 0.160000, + 0.170000, + 0.180000, + 0.190000, + 0.200000,  \
+ 0.210000, + 0.220000, + 0.230000, + 0.240000, + 0.250000, + 0.260000, + 0.270000, + 0.280000, + 0.290000, + 0.300000,  \
+ 0.310000, + 0.320000, + 0.330000, + 0.340000, + 0.350000, + 0.360000, + 0.370000, + 0.380000, + 0.390000, + 0.400000,  \
+ 0.410000, + 0.420000, + 0.430000, + 0.440000, + 0.450000, + 0.460000, + 0.470000, + 0.480000, + 0.490000, + 0.500000,  \
+ 0.510000, + 0.520000, + 0.530000, + 0.540000, + 0.550000, + 0.560000, + 0.570000, + 0.580000, + 0.590000, + 0.600000,  \
+ 0.610000, + 0.620000, + 0.630000, + 0.640000, + 0.650000, + 0.660000, + 0.670000, + 0.680000, + 0.690000, + 0.700000,  \
+ 0.710000, + 0.720000, + 0.730000, + 0.740000, + 0.750000, + 0.760000, + 0.770000, + 0.780000, + 0.790000, + 0.800000 ]

.param id_actual_data_vd0.02=[ \
+ 1.486460000000e-10, + 2.168620000000e-10, + 3.163730000000e-10, + 4.615240000000e-10, + 6.732230000000e-10,  \
+ 9.819230000000e-10, + 1.432000000000e-09, + 2.087800000000e-09, + 3.043000000000e-09, + 4.433200000000e-09,  \
+ 6.454000000000e-09, + 9.386900000000e-09, + 1.363300000000e-08, + 1.975940000000e-08, + 2.855550000000e-08,  \
+ 4.109760000000e-08, + 5.881010000000e-08, + 8.349890000000e-08, + 1.173190000000e-07, + 1.626270000000e-07,  \
+ 2.216860000000e-07, + 2.962440000000e-07, + 3.871040000000e-07, + 4.938470000000e-07, + 6.148470000000e-07,  \
+ 7.475790000000e-07, + 8.890820000000e-07, + 1.036400000000e-06, + 1.186900000000e-06, + 1.338300000000e-06,  \
+ 1.489100000000e-06, + 1.637700000000e-06, + 1.783400000000e-06, + 1.925400000000e-06, + 2.063200000000e-06,  \
+ 2.196600000000e-06, + 2.325300000000e-06, + 2.449200000000e-06, + 2.568300000000e-06, + 2.682600000000e-06,  \
+ 2.792100000000e-06, + 2.896900000000e-06, + 2.997200000000e-06, + 3.093000000000e-06, + 3.184600000000e-06,  \
+ 3.272000000000e-06, + 3.355400000000e-06, + 3.435000000000e-06, + 3.510900000000e-06, + 3.583400000000e-06,  \
+ 3.652500000000e-06, + 3.718400000000e-06, + 3.781300000000e-06, + 3.841400000000e-06, + 3.898700000000e-06,  \
+ 3.953400000000e-06, + 4.005700000000e-06, + 4.055600000000e-06, + 4.103400000000e-06, + 4.149000000000e-06,  \
+ 4.192600000000e-06, + 4.234400000000e-06, + 4.274300000000e-06, + 4.312600000000e-06, + 4.349200000000e-06,  \
+ 4.384300000000e-06, + 4.418000000000e-06, + 4.450300000000e-06, + 4.481200000000e-06, + 4.511000000000e-06,  \
+ 4.539500000000e-06, + 4.566900000000e-06, + 4.593300000000e-06, + 4.618600000000e-06, + 4.642900000000e-06,  \
+ 4.666400000000e-06, + 4.688900000000e-06, + 4.710600000000e-06, + 4.731500000000e-06, + 4.751600000000e-06 ]

.param id_pred_data_vd0.02=[ \
+ 1.456778697673e-10, + 2.137981525152e-10, + 3.144101157204e-10, + 4.621736593435e-10, + 6.780781092175e-10,  \
+ 9.922707278065e-10, + 1.448235451562e-09, + 2.108810548407e-09, + 3.064841394007e-09, + 4.447545052244e-09,  \
+ 6.446107931879e-09, + 9.332759987046e-09, + 1.349756416857e-08, + 1.949491434061e-08, + 2.810066689563e-08,  \
+ 4.037383405375e-08, + 5.770816642325e-08, + 8.184872058337e-08, + 1.148444607679e-07, + 1.589088060427e-07,  \
+ 2.161866723327e-07, + 2.884577588702e-07, + 3.768338865484e-07, + 4.815354259335e-07, + 6.017924533808e-07,  \
+ 7.359194569290e-07, + 8.815071487334e-07, + 1.035695968312e-06, + 1.195480508613e-06, + 1.357968139928e-06,  \
+ 1.520556397736e-06, + 1.681071589701e-06, + 1.837807503762e-06, + 1.989515876630e-06, + 2.135361282853e-06,  \
+ 2.274858561577e-06, + 2.407824067632e-06, + 2.534262021072e-06, + 2.654354320839e-06, + 2.768358681351e-06,  \
+ 2.876606886275e-06, + 2.979459532071e-06, + 3.077284782194e-06, + 3.170417621732e-06, + 3.259199729655e-06,  \
+ 3.343930875417e-06, + 3.424868918955e-06, + 3.502264444251e-06, + 3.576319722924e-06, + 3.647225094028e-06,  \
+ 3.715129569173e-06, + 3.780175466090e-06, + 3.842466685455e-06, + 3.902113239747e-06, + 3.959187888540e-06,  \
+ 4.013780853711e-06, + 4.065953544341e-06, + 4.115761548746e-06, + 4.163260164205e-06, + 4.208500904497e-06,  \
+ 4.251544014551e-06, + 4.292435187381e-06, + 4.331203526817e-06, + 4.367905203253e-06, + 4.402603954077e-06,  \
+ 4.435340233613e-06, + 4.466147220228e-06, + 4.495097091421e-06, + 4.522241652012e-06, + 4.547615535557e-06,  \
+ 4.571282770485e-06, + 4.593307676259e-06, + 4.613730998244e-06, + 4.632619093172e-06, + 4.650023474824e-06,  \
+ 4.666011082008e-06, + 4.680624988396e-06, + 4.693928058259e-06, + 4.705985193141e-06, + 4.716831608675e-06 ]

* Data table for Id-Vg at Vd = 0.03V
.param vg_data_vd0.03=[ \
+ 0.010000, + 0.020000, + 0.030000, + 0.040000, + 0.050000, + 0.060000, + 0.070000, + 0.080000, + 0.090000, + 0.100000,  \
+ 0.110000, + 0.120000, + 0.130000, + 0.140000, + 0.150000, + 0.160000, + 0.170000, + 0.180000, + 0.190000, + 0.200000,  \
+ 0.210000, + 0.220000, + 0.230000, + 0.240000, + 0.250000, + 0.260000, + 0.270000, + 0.280000, + 0.290000, + 0.300000,  \
+ 0.310000, + 0.320000, + 0.330000, + 0.340000, + 0.350000, + 0.360000, + 0.370000, + 0.380000, + 0.390000, + 0.400000,  \
+ 0.410000, + 0.420000, + 0.430000, + 0.440000, + 0.450000, + 0.460000, + 0.470000, + 0.480000, + 0.490000, + 0.500000,  \
+ 0.510000, + 0.520000, + 0.530000, + 0.540000, + 0.550000, + 0.560000, + 0.570000, + 0.580000, + 0.590000, + 0.600000,  \
+ 0.610000, + 0.620000, + 0.630000, + 0.640000, + 0.650000, + 0.660000, + 0.670000, + 0.680000, + 0.690000, + 0.700000,  \
+ 0.710000, + 0.720000, + 0.730000, + 0.740000, + 0.750000, + 0.760000, + 0.770000, + 0.780000, + 0.790000, + 0.800000 ]

.param id_actual_data_vd0.03=[ \
+ 1.899920000000e-10, + 2.771750000000e-10, + 4.043540000000e-10, + 5.898610000000e-10, + 8.604170000000e-10,  \
+ 1.255000000000e-09, + 1.830200000000e-09, + 2.668500000000e-09, + 3.889600000000e-09, + 5.667200000000e-09,  \
+ 8.252200000000e-09, + 1.200550000000e-08, + 1.744360000000e-08, + 2.529830000000e-08, + 3.659350000000e-08,  \
+ 5.273540000000e-08, + 7.560430000000e-08, + 1.076220000000e-07, + 1.517480000000e-07, + 2.113360000000e-07,  \
+ 2.898030000000e-07, + 3.900970000000e-07, + 5.140750000000e-07, + 6.619870000000e-07, + 8.322910000000e-07,  \
+ 1.021900000000e-06, + 1.226700000000e-06, + 1.442300000000e-06, + 1.664600000000e-06, + 1.890000000000e-06,  \
+ 2.115400000000e-06, + 2.338800000000e-06, + 2.558400000000e-06, + 2.773000000000e-06, + 2.981800000000e-06,  \
+ 3.184200000000e-06, + 3.379800000000e-06, + 3.568400000000e-06, + 3.749900000000e-06, + 3.924200000000e-06,  \
+ 4.091400000000e-06, + 4.251600000000e-06, + 4.404900000000e-06, + 4.551600000000e-06, + 4.691700000000e-06,  \
+ 4.825600000000e-06, + 4.953500000000e-06, + 5.075600000000e-06, + 5.192100000000e-06, + 5.303300000000e-06,  \
+ 5.409400000000e-06, + 5.510600000000e-06, + 5.607300000000e-06, + 5.699500000000e-06, + 5.787600000000e-06,  \
+ 5.871700000000e-06, + 5.952000000000e-06, + 6.028800000000e-06, + 6.102100000000e-06, + 6.172200000000e-06,  \
+ 6.239300000000e-06, + 6.303500000000e-06, + 6.364900000000e-06, + 6.423700000000e-06, + 6.480000000000e-06,  \
+ 6.533900000000e-06, + 6.585600000000e-06, + 6.635200000000e-06, + 6.682800000000e-06, + 6.728400000000e-06,  \
+ 6.772300000000e-06, + 6.814400000000e-06, + 6.854800000000e-06, + 6.893700000000e-06, + 6.931000000000e-06,  \
+ 6.967000000000e-06, + 7.001500000000e-06, + 7.034800000000e-06, + 7.066900000000e-06, + 7.097700000000e-06 ]

.param id_pred_data_vd0.03=[ \
+ 1.861711851348e-10, + 2.727115866463e-10, + 4.005906539817e-10, + 5.885365261804e-10, + 8.634202686153e-10,  \
+ 1.263943296692e-09, + 1.846051844723e-09, + 2.690773897029e-09, + 3.915456119330e-09, + 5.689836655165e-09,  \
+ 8.259114565590e-09, + 1.197685151055e-08, + 1.735140926939e-08, + 2.510861577321e-08, + 3.627082378443e-08,  \
+ 5.224448159424e-08, + 7.489924200854e-08, + 1.066047593667e-07, + 1.501863380327e-07, + 2.087576285703e-07,  \
+ 2.854238300642e-07, + 3.828816807072e-07, + 5.029957719671e-07, + 6.464607758971e-07, + 8.126270950015e-07,  \
+ 9.995388973039e-07, + 1.204168656841e-06, + 1.422750356141e-06, + 1.651201637287e-06, + 1.885468955152e-06,  \
+ 2.121807192452e-06, + 2.356989207328e-06, + 2.588389324956e-06, + 2.813984756358e-06, + 3.032336171600e-06,  \
+ 3.242508028052e-06, + 3.443980385782e-06, + 3.636576220742e-06, + 3.820327401627e-06, + 3.995483421022e-06,  \
+ 4.162367113167e-06, + 4.321387968957e-06, + 4.472975560930e-06, + 4.617573868018e-06, + 4.755594563903e-06,  \
+ 4.887438408332e-06, + 5.013476475142e-06, + 5.134036618983e-06, + 5.249405221548e-06, + 5.359851638786e-06,  \
+ 5.465596768772e-06, + 5.566840991378e-06, + 5.663767224178e-06, + 5.756525642937e-06, + 5.845231935382e-06,  \
+ 5.930037586950e-06, + 6.011049990775e-06, + 6.088336376706e-06, + 6.162013305584e-06, + 6.232170271687e-06,  \
+ 6.298883672571e-06, + 6.362226413330e-06, + 6.422291044146e-06, + 6.479158764705e-06, + 6.532890693052e-06,  \
+ 6.583595095435e-06, + 6.631333963014e-06, + 6.676190241706e-06, + 6.718261283822e-06, + 6.757625669707e-06,  \
+ 6.794355867896e-06, + 6.828569748905e-06, + 6.860331923235e-06, + 6.889737996971e-06, + 6.916875281604e-06,  \
+ 6.941835017642e-06, + 6.964712374611e-06, + 6.985573272686e-06, + 7.004532089923e-06, + 7.021653873380e-06 ]

* Data table for Id-Vg at Vd = 0.04V
.param vg_data_vd0.04=[ \
+ 0.010000, + 0.020000, + 0.030000, + 0.040000, + 0.050000, + 0.060000, + 0.070000, + 0.080000, + 0.090000, + 0.100000,  \
+ 0.110000, + 0.120000, + 0.130000, + 0.140000, + 0.150000, + 0.160000, + 0.170000, + 0.180000, + 0.190000, + 0.200000,  \
+ 0.210000, + 0.220000, + 0.230000, + 0.240000, + 0.250000, + 0.260000, + 0.270000, + 0.280000, + 0.290000, + 0.300000,  \
+ 0.310000, + 0.320000, + 0.330000, + 0.340000, + 0.350000, + 0.360000, + 0.370000, + 0.380000, + 0.390000, + 0.400000,  \
+ 0.410000, + 0.420000, + 0.430000, + 0.440000, + 0.450000, + 0.460000, + 0.470000, + 0.480000, + 0.490000, + 0.500000,  \
+ 0.510000, + 0.520000, + 0.530000, + 0.540000, + 0.550000, + 0.560000, + 0.570000, + 0.580000, + 0.590000, + 0.600000,  \
+ 0.610000, + 0.620000, + 0.630000, + 0.640000, + 0.650000, + 0.660000, + 0.670000, + 0.680000, + 0.690000, + 0.700000,  \
+ 0.710000, + 0.720000, + 0.730000, + 0.740000, + 0.750000, + 0.760000, + 0.770000, + 0.780000, + 0.790000, + 0.800000 ]

.param id_actual_data_vd0.04=[ \
+ 2.183440000000e-10, + 3.185250000000e-10, + 4.646600000000e-10, + 6.778100000000e-10, + 9.886780000000e-10,  \
+ 1.442000000000e-09, + 2.102900000000e-09, + 3.066100000000e-09, + 4.469400000000e-09, + 6.512300000000e-09,  \
+ 9.483700000000e-09, + 1.379950000000e-08, + 2.005540000000e-08, + 2.909780000000e-08, + 4.211440000000e-08,  \
+ 6.074440000000e-08, + 8.719530000000e-08, + 1.243410000000e-07, + 1.757520000000e-07, + 2.455780000000e-07,  \
+ 3.382250000000e-07, + 4.577830000000e-07, + 6.072940000000e-07, + 7.880430000000e-07, + 9.991350000000e-07,  \
+ 1.237500000000e-06, + 1.498600000000e-06, + 1.776700000000e-06, + 2.066400000000e-06, + 2.362500000000e-06,  \
+ 2.660700000000e-06, + 2.957700000000e-06, + 3.250900000000e-06, + 3.538300000000e-06, + 3.818600000000e-06,  \
+ 4.090900000000e-06, + 4.354500000000e-06, + 4.609100000000e-06, + 4.854400000000e-06, + 5.090300000000e-06,  \
+ 5.316800000000e-06, + 5.534000000000e-06, + 5.742200000000e-06, + 5.941400000000e-06, + 6.132000000000e-06,  \
+ 6.314200000000e-06, + 6.488200000000e-06, + 6.654500000000e-06, + 6.813300000000e-06, + 6.964900000000e-06,  \
+ 7.109600000000e-06, + 7.247800000000e-06, + 7.379700000000e-06, + 7.505700000000e-06, + 7.626000000000e-06,  \
+ 7.740800000000e-06, + 7.850600000000e-06, + 7.955500000000e-06, + 8.055700000000e-06, + 8.151600000000e-06,  \
+ 8.243200000000e-06, + 8.331000000000e-06, + 8.414900000000e-06, + 8.495300000000e-06, + 8.572200000000e-06,  \
+ 8.646000000000e-06, + 8.716700000000e-06, + 8.784500000000e-06, + 8.849500000000e-06, + 8.911800000000e-06,  \
+ 8.971700000000e-06, + 9.029200000000e-06, + 9.084400000000e-06, + 9.137500000000e-06, + 9.188500000000e-06,  \
+ 9.237600000000e-06, + 9.284800000000e-06, + 9.330200000000e-06, + 9.373900000000e-06, + 9.416100000000e-06 ]

.param id_pred_data_vd0.04=[ \
+ 2.147539923669e-10, + 3.139287940712e-10, + 4.604901349126e-10, + 6.759600523765e-10, + 9.912714205029e-10,  \
+ 1.451068811775e-09, + 2.120021065366e-09, + 3.091963662882e-09, + 4.502927026806e-09, + 6.549920499310e-09,  \
+ 9.517726198283e-09, + 1.381769607178e-08, + 2.004281441259e-08, + 2.904286247940e-08, + 4.202117906971e-08,  \
+ 6.064481567591e-08, + 8.714865543880e-08, + 1.243966380571e-07, + 1.758481448633e-07, + 2.453843990224e-07,  \
+ 3.369668775122e-07, + 4.541664384305e-07, + 5.996409527143e-07, + 7.746887422400e-07, + 9.789929754334e-07,  \
+ 1.210605914821e-06, + 1.466180547141e-06, + 1.741349988151e-06, + 2.031215262832e-06, + 2.330768329557e-06,  \
+ 2.635279379319e-06, + 2.940545382444e-06, + 3.243032260798e-06, + 3.539928875398e-06, + 3.829123743344e-06,  \
+ 4.109151195735e-06, + 4.379051970318e-06, + 4.638337413780e-06, + 4.886835231446e-06, + 5.124622839503e-06,  \
+ 5.351967993192e-06, + 5.569222266786e-06, + 5.776832695119e-06, + 5.975256790407e-06, + 6.164967198856e-06,  \
+ 6.346412701532e-06, + 6.520015886053e-06, + 6.686164997518e-06, + 6.845245370641e-06, + 6.997558521107e-06,  \
+ 7.143389084376e-06, + 7.283008890226e-06, + 7.416644948535e-06, + 7.544505642727e-06, + 7.666771416552e-06,  \
+ 7.783600012772e-06, + 7.895150920376e-06, + 8.001574897207e-06, + 8.103001164272e-06, + 8.199548465200e-06,  \
+ 8.291330304928e-06, + 8.378471829928e-06, + 8.461105171591e-06, + 8.539339760318e-06, + 8.613269310445e-06,  \
+ 8.683026535437e-06, + 8.748741820455e-06, + 8.810517028905e-06, + 8.868464501575e-06, + 8.922707638703e-06,  \
+ 8.973396616057e-06, + 9.020622237585e-06, + 9.064507903531e-06, + 9.105193894356e-06, + 9.142809431069e-06,  \
+ 9.177447063848e-06, + 9.209263953380e-06, + 9.238345082849e-06, + 9.264849359170e-06, + 9.288860601373e-06 ]

* Data table for Id-Vg at Vd = 0.05V
.param vg_data_vd0.05=[ \
+ 0.010000, + 0.020000, + 0.030000, + 0.040000, + 0.050000, + 0.060000, + 0.070000, + 0.080000, + 0.090000, + 0.100000,  \
+ 0.110000, + 0.120000, + 0.130000, + 0.140000, + 0.150000, + 0.160000, + 0.170000, + 0.180000, + 0.190000, + 0.200000,  \
+ 0.210000, + 0.220000, + 0.230000, + 0.240000, + 0.250000, + 0.260000, + 0.270000, + 0.280000, + 0.290000, + 0.300000,  \
+ 0.310000, + 0.320000, + 0.330000, + 0.340000, + 0.350000, + 0.360000, + 0.370000, + 0.380000, + 0.390000, + 0.400000,  \
+ 0.410000, + 0.420000, + 0.430000, + 0.440000, + 0.450000, + 0.460000, + 0.470000, + 0.480000, + 0.490000, + 0.500000,  \
+ 0.510000, + 0.520000, + 0.530000, + 0.540000, + 0.550000, + 0.560000, + 0.570000, + 0.580000, + 0.590000, + 0.600000,  \
+ 0.610000, + 0.620000, + 0.630000, + 0.640000, + 0.650000, + 0.660000, + 0.670000, + 0.680000, + 0.690000, + 0.700000,  \
+ 0.710000, + 0.720000, + 0.730000, + 0.740000, + 0.750000, + 0.760000, + 0.770000, + 0.780000, + 0.790000, + 0.800000 ]

.param id_actual_data_vd0.05=[ \
+ 2.383360000000e-10, + 3.476720000000e-10, + 5.071520000000e-10, + 7.397580000000e-10, + 1.079000000000e-09,  \
+ 1.573700000000e-09, + 2.294800000000e-09, + 3.345900000000e-09, + 4.877100000000e-09, + 7.106500000000e-09,  \
+ 1.034930000000e-08, + 1.506010000000e-08, + 2.189060000000e-08, + 3.176760000000e-08, + 4.599460000000e-08,  \
+ 6.637600000000e-08, + 9.535320000000e-08, + 1.361270000000e-07, + 1.927150000000e-07, + 2.698700000000e-07,  \
+ 3.727770000000e-07, + 5.064870000000e-07, + 6.751480000000e-07, + 8.811830000000e-07, + 1.124700000000e-06,  \
+ 1.403200000000e-06, + 1.712200000000e-06, + 2.045400000000e-06, + 2.396300000000e-06, + 2.758300000000e-06,  \
+ 3.125800000000e-06, + 3.494000000000e-06, + 3.859200000000e-06, + 4.218600000000e-06, + 4.570300000000e-06,  \
+ 4.912800000000e-06, + 5.245000000000e-06, + 5.566400000000e-06, + 5.876600000000e-06, + 6.175300000000e-06,  \
+ 6.462600000000e-06, + 6.738400000000e-06, + 7.002900000000e-06, + 7.256300000000e-06, + 7.498900000000e-06,  \
+ 7.731000000000e-06, + 7.953000000000e-06, + 8.165200000000e-06, + 8.367900000000e-06, + 8.561500000000e-06,  \
+ 8.746500000000e-06, + 8.923200000000e-06, + 9.092000000000e-06, + 9.253200000000e-06, + 9.407200000000e-06,  \
+ 9.554300000000e-06, + 9.694900000000e-06, + 9.829200000000e-06, + 9.957700000000e-06, + 1.008050000000e-05,  \
+ 1.019800000000e-05, + 1.031050000000e-05, + 1.041810000000e-05, + 1.052110000000e-05, + 1.061980000000e-05,  \
+ 1.071440000000e-05, + 1.080500000000e-05, + 1.089190000000e-05, + 1.097520000000e-05, + 1.105520000000e-05,  \
+ 1.113190000000e-05, + 1.120560000000e-05, + 1.127640000000e-05, + 1.134440000000e-05, + 1.140980000000e-05,  \
+ 1.147260000000e-05, + 1.153300000000e-05, + 1.159120000000e-05, + 1.164710000000e-05, + 1.170100000000e-05 ]

.param id_pred_data_vd0.05=[ \
+ 2.355277750610e-10, + 3.435613127323e-10, + 5.031818961498e-10, + 7.378449407014e-10, + 1.081305445183e-09,  \
+ 1.582378850173e-09, + 2.311887747908e-09, + 3.372719703520e-09, + 4.914190654404e-09, + 7.152573999747e-09,  \
+ 1.040068298153e-08, + 1.511071019422e-08, + 2.193568917619e-08, + 3.181422414400e-08, + 4.608139363427e-08,  \
+ 6.659748237325e-08, + 9.587531621946e-08, + 1.371651592308e-07, + 1.944390760400e-07, + 2.722191993598e-07,  \
+ 3.752195880224e-07, + 5.078163667349e-07, + 6.734534963471e-07, + 8.741022611503e-07, + 1.109917866415e-06,  \
+ 1.379164314130e-06, + 1.678416447248e-06, + 2.002974542847e-06, + 2.347348890908e-06, + 2.705799488467e-06,  \
+ 3.072764229728e-06, + 3.443157766014e-06, + 3.812617069343e-06, + 4.177544178674e-06, + 4.535140033113e-06,  \
+ 4.883340807282e-06, + 5.220705497777e-06, + 5.546330430661e-06, + 5.859757584403e-06, + 6.160829070723e-06,  \
+ 6.449643842643e-06, + 6.726470019203e-06, + 6.991661211941e-06, + 7.245667802636e-06, + 7.488935079891e-06,  \
+ 7.721937436145e-06, + 7.945130346343e-06, + 8.158932178048e-06, + 8.363750384888e-06, + 8.559935668018e-06,  \
+ 8.747848914936e-06, + 8.927780436352e-06, + 9.100011084229e-06, + 9.264804975828e-06, + 9.422370203538e-06,  \
+ 9.572932322044e-06, + 9.716676140670e-06, + 9.853797382675e-06, + 9.984461212298e-06, + 1.010882406263e-05,  \
+ 1.022709620884e-05, + 1.033935404848e-05, + 1.044582822942e-05, + 1.054660824593e-05, + 1.064189273166e-05,  \
+ 1.073182502296e-05, + 1.081657319446e-05, + 1.089627403417e-05, + 1.097108906833e-05, + 1.104117181967e-05,  \
+ 1.110668090405e-05, + 1.116779603763e-05, + 1.122467510868e-05, + 1.127743380493e-05, + 1.132628094638e-05,  \
+ 1.137135914178e-05, + 1.141282846220e-05, + 1.145082278526e-05, + 1.148552546510e-05, + 1.151707037934e-05 ]

* Data table for Id-Vg at Vd = 0.06V
.param vg_data_vd0.06=[ \
+ 0.010000, + 0.020000, + 0.030000, + 0.040000, + 0.050000, + 0.060000, + 0.070000, + 0.080000, + 0.090000, + 0.100000,  \
+ 0.110000, + 0.120000, + 0.130000, + 0.140000, + 0.150000, + 0.160000, + 0.170000, + 0.180000, + 0.190000, + 0.200000,  \
+ 0.210000, + 0.220000, + 0.230000, + 0.240000, + 0.250000, + 0.260000, + 0.270000, + 0.280000, + 0.290000, + 0.300000,  \
+ 0.310000, + 0.320000, + 0.330000, + 0.340000, + 0.350000, + 0.360000, + 0.370000, + 0.380000, + 0.390000, + 0.400000,  \
+ 0.410000, + 0.420000, + 0.430000, + 0.440000, + 0.450000, + 0.460000, + 0.470000, + 0.480000, + 0.490000, + 0.500000,  \
+ 0.510000, + 0.520000, + 0.530000, + 0.540000, + 0.550000, + 0.560000, + 0.570000, + 0.580000, + 0.590000, + 0.600000,  \
+ 0.610000, + 0.620000, + 0.630000, + 0.640000, + 0.650000, + 0.660000, + 0.670000, + 0.680000, + 0.690000, + 0.700000,  \
+ 0.710000, + 0.720000, + 0.730000, + 0.740000, + 0.750000, + 0.760000, + 0.770000, + 0.780000, + 0.790000, + 0.800000 ]

.param id_actual_data_vd0.06=[ \
+ 2.531020000000e-10, + 3.691890000000e-10, + 5.385060000000e-10, + 7.854450000000e-10, + 1.145600000000e-09,  \
+ 1.670600000000e-09, + 2.436100000000e-09, + 3.551800000000e-09, + 5.177000000000e-09, + 7.543300000000e-09,  \
+ 1.098530000000e-08, + 1.598600000000e-08, + 2.323780000000e-08, + 3.372640000000e-08, + 4.884020000000e-08,  \
+ 7.050410000000e-08, + 1.013310000000e-07, + 1.447610000000e-07, + 2.051410000000e-07, + 2.876720000000e-07,  \
+ 3.981260000000e-07, + 5.423090000000e-07, + 7.252770000000e-07, + 9.504910000000e-07, + 1.219100000000e-06,  \
+ 1.529600000000e-06, + 1.877800000000e-06, + 2.257800000000e-06, + 2.662200000000e-06, + 3.083600000000e-06,  \
+ 3.514900000000e-06, + 3.950300000000e-06, + 4.384600000000e-06, + 4.814100000000e-06, + 5.235900000000e-06,  \
+ 5.647900000000e-06, + 6.048700000000e-06, + 6.437300000000e-06, + 6.813000000000e-06, + 7.175400000000e-06,  \
+ 7.524400000000e-06, + 7.859900000000e-06, + 8.182100000000e-06, + 8.491100000000e-06, + 8.787300000000e-06,  \
+ 9.070900000000e-06, + 9.342300000000e-06, + 9.602000000000e-06, + 9.850200000000e-06, + 1.008760000000e-05,  \
+ 1.031440000000e-05, + 1.053120000000e-05, + 1.073830000000e-05, + 1.093630000000e-05, + 1.112540000000e-05,  \
+ 1.130630000000e-05, + 1.147910000000e-05, + 1.164430000000e-05, + 1.180230000000e-05, + 1.195340000000e-05,  \
+ 1.209800000000e-05, + 1.223640000000e-05, + 1.236890000000e-05, + 1.249570000000e-05, + 1.261720000000e-05,  \
+ 1.273360000000e-05, + 1.284510000000e-05, + 1.295210000000e-05, + 1.305470000000e-05, + 1.315310000000e-05,  \
+ 1.324760000000e-05, + 1.333830000000e-05, + 1.342540000000e-05, + 1.350900000000e-05, + 1.358940000000e-05,  \
+ 1.366670000000e-05, + 1.374110000000e-05, + 1.381250000000e-05, + 1.388130000000e-05, + 1.394760000000e-05 ]

.param id_pred_data_vd0.06=[ \
+ 2.511506735914e-10, + 3.655796465551e-10, + 5.345861353589e-10, + 7.829743253751e-10, + 1.146501560356e-09,  \
+ 1.676932299688e-09, + 2.449504279411e-09, + 3.573605624752e-09, + 5.208061821804e-09, + 7.582889622881e-09,  \
+ 1.103074623643e-08, + 1.603267492101e-08, + 2.328397613383e-08, + 3.378641622476e-08, + 4.896995619674e-08,  \
+ 7.083703394528e-08, + 1.021099569698e-07, + 1.463373337174e-07, + 2.079014166156e-07, + 2.918547852460e-07,  \
+ 4.035554866277e-07, + 5.481073276314e-07, + 7.297013689822e-07, + 9.510032032267e-07, + 1.212725073856e-06,  \
+ 1.513491224614e-06, + 1.849984037108e-06, + 2.217367655248e-06, + 2.609791554278e-06, + 3.020970834768e-06,  \
+ 3.444665344432e-06, + 3.875065594912e-06, + 4.307022609282e-06, + 4.736216214951e-06, + 5.159159190953e-06,  \
+ 5.573164526140e-06, + 5.976271204418e-06, + 6.367145979311e-06, + 6.744912680006e-06, + 7.109163561836e-06,  \
+ 7.459767221007e-06, + 7.796786958352e-06, + 8.120491693262e-06, + 8.431213209406e-06, + 8.729373221286e-06,  \
+ 9.015401301440e-06, + 9.289737499785e-06, + 9.552805277053e-06, + 9.805042936932e-06, + 1.004681456834e-05,  \
+ 1.027851743856e-05, + 1.050046237651e-05, + 1.071297941962e-05, + 1.091634796467e-05, + 1.111084478907e-05,  \
+ 1.129670214141e-05, + 1.147417235188e-05, + 1.164347719168e-05, + 1.180481660413e-05, + 1.195842021843e-05,  \
+ 1.210446003824e-05, + 1.224316132721e-05, + 1.237466902239e-05, + 1.249925378943e-05, + 1.261705270736e-05,  \
+ 1.272827532375e-05, + 1.283310935833e-05, + 1.293176261242e-05, + 1.302444026805e-05, + 1.311130385147e-05,  \
+ 1.319259259617e-05, + 1.326848723693e-05, + 1.333916938165e-05, + 1.340487040579e-05, + 1.346574397758e-05,  \
+ 1.352204504656e-05, + 1.357392029604e-05, + 1.362157665426e-05, + 1.366520446027e-05, + 1.370497047901e-05 ]

* Data table for Id-Vg at Vd = 0.07V
.param vg_data_vd0.07=[ \
+ 0.010000, + 0.020000, + 0.030000, + 0.040000, + 0.050000, + 0.060000, + 0.070000, + 0.080000, + 0.090000, + 0.100000,  \
+ 0.110000, + 0.120000, + 0.130000, + 0.140000, + 0.150000, + 0.160000, + 0.170000, + 0.180000, + 0.190000, + 0.200000,  \
+ 0.210000, + 0.220000, + 0.230000, + 0.240000, + 0.250000, + 0.260000, + 0.270000, + 0.280000, + 0.290000, + 0.300000,  \
+ 0.310000, + 0.320000, + 0.330000, + 0.340000, + 0.350000, + 0.360000, + 0.370000, + 0.380000, + 0.390000, + 0.400000,  \
+ 0.410000, + 0.420000, + 0.430000, + 0.440000, + 0.450000, + 0.460000, + 0.470000, + 0.480000, + 0.490000, + 0.500000,  \
+ 0.510000, + 0.520000, + 0.530000, + 0.540000, + 0.550000, + 0.560000, + 0.570000, + 0.580000, + 0.590000, + 0.600000,  \
+ 0.610000, + 0.620000, + 0.630000, + 0.640000, + 0.650000, + 0.660000, + 0.670000, + 0.680000, + 0.690000, + 0.700000,  \
+ 0.710000, + 0.720000, + 0.730000, + 0.740000, + 0.750000, + 0.760000, + 0.770000, + 0.780000, + 0.790000, + 0.800000 ]

.param id_actual_data_vd0.07=[ \
+ 2.644260000000e-10, + 3.856790000000e-10, + 5.625190000000e-10, + 8.204120000000e-10, + 1.196500000000e-09,  \
+ 1.744800000000e-09, + 2.544100000000e-09, + 3.708900000000e-09, + 5.405800000000e-09, + 7.876200000000e-09,  \
+ 1.146990000000e-08, + 1.669080000000e-08, + 2.426260000000e-08, + 3.521550000000e-08, + 5.100170000000e-08,  \
+ 7.363770000000e-08, + 1.058650000000e-07, + 1.513050000000e-07, + 2.145540000000e-07, + 3.011490000000e-07,  \
+ 4.173120000000e-07, + 5.694210000000e-07, + 7.632530000000e-07, + 1.003100000000e-06, + 1.291100000000e-06,  \
+ 1.626600000000e-06, + 2.006400000000e-06, + 2.424700000000e-06, + 2.874400000000e-06, + 3.347500000000e-06,  \
+ 3.836000000000e-06, + 4.332900000000e-06, + 4.831800000000e-06, + 5.327900000000e-06, + 5.817400000000e-06,  \
+ 6.297300000000e-06, + 6.765600000000e-06, + 7.220800000000e-06, + 7.661900000000e-06, + 8.088300000000e-06,  \
+ 8.499600000000e-06, + 8.895700000000e-06, + 9.276500000000e-06, + 9.642300000000e-06, + 9.993300000000e-06,  \
+ 1.032970000000e-05, + 1.065200000000e-05, + 1.096060000000e-05, + 1.125590000000e-05, + 1.153840000000e-05,  \
+ 1.180860000000e-05, + 1.206700000000e-05, + 1.231410000000e-05, + 1.255020000000e-05, + 1.277610000000e-05,  \
+ 1.299200000000e-05, + 1.319850000000e-05, + 1.339590000000e-05, + 1.358480000000e-05, + 1.376550000000e-05,  \
+ 1.393840000000e-05, + 1.410390000000e-05, + 1.426240000000e-05, + 1.441420000000e-05, + 1.455950000000e-05,  \
+ 1.469880000000e-05, + 1.483240000000e-05, + 1.496040000000e-05, + 1.508310000000e-05, + 1.520090000000e-05,  \
+ 1.531400000000e-05, + 1.542250000000e-05, + 1.552670000000e-05, + 1.562680000000e-05, + 1.572300000000e-05,  \
+ 1.581540000000e-05, + 1.590430000000e-05, + 1.598980000000e-05, + 1.607200000000e-05, + 1.615110000000e-05 ]

.param id_pred_data_vd0.07=[ \
+ 2.633494533555e-10, + 3.825738437158e-10, + 5.585687734566e-10, + 8.171192877882e-10, + 1.195418430910e-09,  \
+ 1.747377211814e-09, + 2.551454514332e-09, + 3.721830488246e-09, + 5.424245301811e-09, + 7.898721321453e-09,  \
+ 1.149206738660e-08, + 1.670562255640e-08, + 2.426447622383e-08, + 3.521495955283e-08, + 5.105474315314e-08,  \
+ 7.388982112388e-08, + 1.065985827609e-07, + 1.529590781502e-07, + 2.176764655815e-07, + 3.062376254093e-07,  \
+ 4.245464970154e-07, + 5.783459801023e-07, + 7.725201703579e-07, + 1.010416999634e-06, + 1.293344266742e-06,  \
+ 1.620377115614e-06, + 1.988452131627e-06, + 2.392755377514e-06, + 2.827268253895e-06, + 3.285329657956e-06,  \
+ 3.760185027204e-06, + 4.245406271366e-06, + 4.735198890558e-06, + 5.224554261076e-06, + 5.709332908737e-06,  \
+ 6.186244136188e-06, + 6.652783122263e-06, + 7.107121418812e-06, + 7.548015273642e-06, + 7.974672698765e-06,  \
+ 8.386695408262e-06, + 8.783935190877e-06, + 9.166457748506e-06, + 9.534508571960e-06, + 9.888352506096e-06,  \
+ 1.022838987410e-05, + 1.055498636561e-05, + 1.086859221687e-05, + 1.116956089390e-05, + 1.145832429756e-05,  \
+ 1.173523080070e-05, + 1.200064201839e-05, + 1.225489817443e-05, + 1.249832013855e-05, + 1.273117377423e-05,  \
+ 1.295377893257e-05, + 1.316638212302e-05, + 1.336925939540e-05, + 1.356264605420e-05, + 1.374678962748e-05,  \
+ 1.392190402839e-05, + 1.408826836268e-05, + 1.424610061804e-05, + 1.439560655854e-05, + 1.453708566260e-05,  \
+ 1.467068970669e-05, + 1.479671409470e-05, + 1.491536866524e-05, + 1.502690502093e-05, + 1.513155235443e-05,  \
+ 1.522954902612e-05, + 1.532113543362e-05, + 1.540652854601e-05, + 1.548602987896e-05, + 1.555976676173e-05,  \
+ 1.562808654853e-05, + 1.569113897858e-05, + 1.574921741849e-05, + 1.580249198014e-05, + 1.585118370713e-05 ]

* Data table for Id-Vg at Vd = 0.08V
.param vg_data_vd0.08=[ \
+ 0.010000, + 0.020000, + 0.030000, + 0.040000, + 0.050000, + 0.060000, + 0.070000, + 0.080000, + 0.090000, + 0.100000,  \
+ 0.110000, + 0.120000, + 0.130000, + 0.140000, + 0.150000, + 0.160000, + 0.170000, + 0.180000, + 0.190000, + 0.200000,  \
+ 0.210000, + 0.220000, + 0.230000, + 0.240000, + 0.250000, + 0.260000, + 0.270000, + 0.280000, + 0.290000, + 0.300000,  \
+ 0.310000, + 0.320000, + 0.330000, + 0.340000, + 0.350000, + 0.360000, + 0.370000, + 0.380000, + 0.390000, + 0.400000,  \
+ 0.410000, + 0.420000, + 0.430000, + 0.440000, + 0.450000, + 0.460000, + 0.470000, + 0.480000, + 0.490000, + 0.500000,  \
+ 0.510000, + 0.520000, + 0.530000, + 0.540000, + 0.550000, + 0.560000, + 0.570000, + 0.580000, + 0.590000, + 0.600000,  \
+ 0.610000, + 0.620000, + 0.630000, + 0.640000, + 0.650000, + 0.660000, + 0.670000, + 0.680000, + 0.690000, + 0.700000,  \
+ 0.710000, + 0.720000, + 0.730000, + 0.740000, + 0.750000, + 0.760000, + 0.770000, + 0.780000, + 0.790000, + 0.800000 ]

.param id_actual_data_vd0.08=[ \
+ 2.733620000000e-10, + 3.986810000000e-10, + 5.814360000000e-10, + 8.479340000000e-10, + 1.236500000000e-09,  \
+ 1.803000000000e-09, + 2.628800000000e-09, + 3.832200000000e-09, + 5.585100000000e-09, + 8.137000000000e-09,  \
+ 1.184890000000e-08, + 1.724170000000e-08, + 2.506280000000e-08, + 3.637710000000e-08, + 5.268640000000e-08,  \
+ 7.607750000000e-08, + 1.093920000000e-07, + 1.563890000000e-07, + 2.218590000000e-07, + 3.115980000000e-07,  \
+ 4.321700000000e-07, + 5.904030000000e-07, + 7.926320000000e-07, + 1.043800000000e-06, + 1.346900000000e-06,  \
+ 1.702100000000e-06, + 2.106900000000e-06, + 2.556400000000e-06, + 3.043600000000e-06, + 3.560600000000e-06,  \
+ 4.099000000000e-06, + 4.650600000000e-06, + 5.208500000000e-06, + 5.766500000000e-06, + 6.319800000000e-06,  \
+ 6.864700000000e-06, + 7.398400000000e-06, + 7.918700000000e-06, + 8.424300000000e-06, + 8.914200000000e-06,  \
+ 9.387800000000e-06, + 9.844600000000e-06, + 1.028470000000e-05, + 1.070800000000e-05, + 1.111460000000e-05,  \
+ 1.150500000000e-05, + 1.187930000000e-05, + 1.223810000000e-05, + 1.258180000000e-05, + 1.291080000000e-05,  \
+ 1.322580000000e-05, + 1.352720000000e-05, + 1.381560000000e-05, + 1.409140000000e-05, + 1.435530000000e-05,  \
+ 1.460770000000e-05, + 1.484920000000e-05, + 1.508020000000e-05, + 1.530130000000e-05, + 1.551280000000e-05,  \
+ 1.571530000000e-05, + 1.590920000000e-05, + 1.609480000000e-05, + 1.627260000000e-05, + 1.644300000000e-05,  \
+ 1.660620000000e-05, + 1.676270000000e-05, + 1.691270000000e-05, + 1.705660000000e-05, + 1.719470000000e-05,  \
+ 1.732710000000e-05, + 1.745430000000e-05, + 1.757640000000e-05, + 1.769370000000e-05, + 1.780640000000e-05,  \
+ 1.791470000000e-05, + 1.801870000000e-05, + 1.811880000000e-05, + 1.821510000000e-05, + 1.830770000000e-05 ]

.param id_pred_data_vd0.08=[ \
+ 2.732483928014e-10, + 3.962265537893e-10, + 5.776620071174e-10, + 8.440661503073e-10, + 1.233691904190e-09,  \
+ 1.802077918001e-09, + 2.630122253322e-09, + 3.835617974346e-09, + 5.589569127551e-09, + 8.139339229274e-09,  \
+ 1.184209281746e-08, + 1.721363787510e-08, + 2.499994707250e-08, + 3.627864316513e-08, + 5.259542376734e-08,  \
+ 7.613099114678e-08, + 1.098793109122e-07, + 1.577928196639e-07, + 2.248303098895e-07, + 3.168278999510e-07,  \
+ 4.401463957038e-07, + 6.010840661475e-07, + 8.051475015236e-07, + 1.056331748259e-06, + 1.356550783385e-06,  \
+ 1.705380127532e-06, + 2.100105484715e-06, + 2.536080137361e-06, + 3.007243794855e-06, + 3.506719367579e-06,  \
+ 4.027392715216e-06, + 4.562345857266e-06, + 5.105215823278e-06, + 5.650414386764e-06, + 6.193214212544e-06,  \
+ 6.729720043950e-06, + 7.256902172230e-06, + 7.772432873026e-06, + 8.274642750621e-06, + 8.762364741415e-06,  \
+ 9.234870085493e-06, + 9.691776940599e-06, + 1.013291068375e-05, + 1.055830740370e-05, + 1.096818596125e-05,  \
+ 1.136274659075e-05, + 1.174232689664e-05, + 1.210729475133e-05, + 1.245797728188e-05, + 1.279478077777e-05,  \
+ 1.311803935096e-05, + 1.342811272480e-05, + 1.372536877170e-05, + 1.401007291861e-05, + 1.428260933608e-05,  \
+ 1.454325392842e-05, + 1.479228143580e-05, + 1.503001200035e-05, + 1.525667263195e-05, + 1.547260791995e-05,  \
+ 1.567804836668e-05, + 1.587329781614e-05, + 1.605861471035e-05, + 1.623423187993e-05, + 1.640047412366e-05,  \
+ 1.655759755522e-05, + 1.670588389970e-05, + 1.684556598775e-05, + 1.697700703517e-05, + 1.710038864985e-05,  \
+ 1.721607754007e-05, + 1.732428558171e-05, + 1.742531196214e-05, + 1.751944073476e-05, + 1.760693965480e-05,  \
+ 1.768811140209e-05, + 1.776316668838e-05, + 1.783241750672e-05, + 1.789610134438e-05, + 1.795449759811e-05 ]

* Data table for Id-Vg at Vd = 0.09V
.param vg_data_vd0.09=[ \
+ 0.010000, + 0.020000, + 0.030000, + 0.040000, + 0.050000, + 0.060000, + 0.070000, + 0.080000, + 0.090000, + 0.100000,  \
+ 0.110000, + 0.120000, + 0.130000, + 0.140000, + 0.150000, + 0.160000, + 0.170000, + 0.180000, + 0.190000, + 0.200000,  \
+ 0.210000, + 0.220000, + 0.230000, + 0.240000, + 0.250000, + 0.260000, + 0.270000, + 0.280000, + 0.290000, + 0.300000,  \
+ 0.310000, + 0.320000, + 0.330000, + 0.340000, + 0.350000, + 0.360000, + 0.370000, + 0.380000, + 0.390000, + 0.400000,  \
+ 0.410000, + 0.420000, + 0.430000, + 0.440000, + 0.450000, + 0.460000, + 0.470000, + 0.480000, + 0.490000, + 0.500000,  \
+ 0.510000, + 0.520000, + 0.530000, + 0.540000, + 0.550000, + 0.560000, + 0.570000, + 0.580000, + 0.590000, + 0.600000,  \
+ 0.610000, + 0.620000, + 0.630000, + 0.640000, + 0.650000, + 0.660000, + 0.670000, + 0.680000, + 0.690000, + 0.700000,  \
+ 0.710000, + 0.720000, + 0.730000, + 0.740000, + 0.750000, + 0.760000, + 0.770000, + 0.780000, + 0.790000, + 0.800000 ]

.param id_actual_data_vd0.09=[ \
+ 2.806440000000e-10, + 4.092660000000e-10, + 5.968220000000e-10, + 8.702980000000e-10, + 1.269000000000e-09,  \
+ 1.850300000000e-09, + 2.697500000000e-09, + 3.931900000000e-09, + 5.730000000000e-09, + 8.347500000000e-09,  \
+ 1.215470000000e-08, + 1.768560000000e-08, + 2.570680000000e-08, + 3.731070000000e-08, + 5.403840000000e-08,  \
+ 7.803240000000e-08, + 1.122130000000e-07, + 1.604480000000e-07, + 2.276780000000e-07, + 3.199010000000e-07,  \
+ 4.439490000000e-07, + 6.069940000000e-07, + 8.158120000000e-07, + 1.075900000000e-06, + 1.390900000000e-06,  \
+ 1.761600000000e-06, + 2.186400000000e-06, + 2.661000000000e-06, + 3.179000000000e-06, + 3.732700000000e-06,  \
+ 4.313500000000e-06, + 4.913100000000e-06, + 5.523500000000e-06, + 6.137900000000e-06, + 6.750400000000e-06,  \
+ 7.356300000000e-06, + 7.952200000000e-06, + 8.535200000000e-06, + 9.103500000000e-06, + 9.655600000000e-06,  \
+ 1.019060000000e-05, + 1.070780000000e-05, + 1.120700000000e-05, + 1.168790000000e-05, + 1.215080000000e-05,  \
+ 1.259560000000e-05, + 1.302290000000e-05, + 1.343280000000e-05, + 1.382590000000e-05, + 1.420270000000e-05,  \
+ 1.456360000000e-05, + 1.490930000000e-05, + 1.524030000000e-05, + 1.555710000000e-05, + 1.586030000000e-05,  \
+ 1.615050000000e-05, + 1.642830000000e-05, + 1.669420000000e-05, + 1.694870000000e-05, + 1.719230000000e-05,  \
+ 1.742560000000e-05, + 1.764890000000e-05, + 1.786290000000e-05, + 1.806780000000e-05, + 1.826420000000e-05,  \
+ 1.845240000000e-05, + 1.863290000000e-05, + 1.880590000000e-05, + 1.897180000000e-05, + 1.913100000000e-05,  \
+ 1.928380000000e-05, + 1.943040000000e-05, + 1.957120000000e-05, + 1.970640000000e-05, + 1.983630000000e-05,  \
+ 1.996110000000e-05, + 2.008100000000e-05, + 2.019630000000e-05, + 2.030720000000e-05, + 2.041390000000e-05 ]

.param id_pred_data_vd0.09=[ \
+ 2.815800392852e-10, + 4.076364046313e-10, + 5.935148772451e-10, + 8.662843242746e-10, + 1.265036475573e-09,  \
+ 1.846566899388e-09, + 2.693707017443e-09, + 3.927132858905e-09, + 5.721949634108e-09, + 8.331265277661e-09,  \
+ 1.211989740568e-08, + 1.761427739666e-08, + 2.557515159651e-08, + 3.710213064778e-08, + 5.377482011681e-08,  \
+ 7.782760803821e-08, + 1.123392758018e-07, + 1.613942515633e-07, + 2.301471704413e-07, + 3.247158906561e-07,  \
+ 4.518352898231e-07, + 6.182780316522e-07, + 8.301041543746e-07, + 1.091902831831e-06, + 1.406178034813e-06,  \
+ 1.773029871401e-06, + 2.190153481934e-06, + 2.653153278516e-06, + 3.156062557537e-06, + 3.691908787005e-06,  \
+ 4.253350271028e-06, + 4.833094753849e-06, + 5.424353548733e-06, + 6.021007211530e-06, + 6.617785620620e-06,  \
+ 7.210285330075e-06, + 7.794950579409e-06, + 8.368976050406e-06, + 8.930241383496e-06, + 9.477190033067e-06,  \
+ 1.000876181934e-05, + 1.052426261595e-05, + 1.102326481487e-05, + 1.150565381977e-05, + 1.197134843096e-05,  \
+ 1.242053069291e-05, + 1.285341670155e-05, + 1.327022124315e-05, + 1.367123899399e-05, + 1.405684059137e-05,  \
+ 1.442729058908e-05, + 1.478297926951e-05, + 1.512419868959e-05, + 1.545129198348e-05, + 1.576459442731e-05,  \
+ 1.606436664588e-05, + 1.635095963138e-05, + 1.662467591814e-05, + 1.688583244686e-05, + 1.713474353892e-05,  \
+ 1.737165934173e-05, + 1.759692691849e-05, + 1.781084094546e-05, + 1.801371050533e-05, + 1.820584599045e-05,  \
+ 1.838754207711e-05, + 1.855911832536e-05, + 1.872091917903e-05, + 1.887325634016e-05, + 1.901640091091e-05,  \
+ 1.915071305120e-05, + 1.927648481796e-05, + 1.939409208717e-05, + 1.950374833541e-05, + 1.960590670933e-05,  \
+ 1.970074532437e-05, + 1.978864398552e-05, + 1.986990260775e-05, + 1.994479884161e-05, + 2.001362081501e-05 ]

* Data table for Id-Vg at Vd = 0.10V
.param vg_data_vd0.10=[ \
+ 0.010000, + 0.020000, + 0.030000, + 0.040000, + 0.050000, + 0.060000, + 0.070000, + 0.080000, + 0.090000, + 0.100000,  \
+ 0.110000, + 0.120000, + 0.130000, + 0.140000, + 0.150000, + 0.160000, + 0.170000, + 0.180000, + 0.190000, + 0.200000,  \
+ 0.210000, + 0.220000, + 0.230000, + 0.240000, + 0.250000, + 0.260000, + 0.270000, + 0.280000, + 0.290000, + 0.300000,  \
+ 0.310000, + 0.320000, + 0.330000, + 0.340000, + 0.350000, + 0.360000, + 0.370000, + 0.380000, + 0.390000, + 0.400000,  \
+ 0.410000, + 0.420000, + 0.430000, + 0.440000, + 0.450000, + 0.460000, + 0.470000, + 0.480000, + 0.490000, + 0.500000,  \
+ 0.510000, + 0.520000, + 0.530000, + 0.540000, + 0.550000, + 0.560000, + 0.570000, + 0.580000, + 0.590000, + 0.600000,  \
+ 0.610000, + 0.620000, + 0.630000, + 0.640000, + 0.650000, + 0.660000, + 0.670000, + 0.680000, + 0.690000, + 0.700000,  \
+ 0.710000, + 0.720000, + 0.730000, + 0.740000, + 0.750000, + 0.760000, + 0.770000, + 0.780000, + 0.790000, + 0.800000 ]

.param id_actual_data_vd0.10=[ \
+ 2.868030000000e-10, + 4.182090000000e-10, + 6.098080000000e-10, + 8.891530000000e-10, + 1.296400000000e-09,  \
+ 1.890000000000e-09, + 2.755200000000e-09, + 4.015700000000e-09, + 5.851500000000e-09, + 8.523800000000e-09,  \
+ 1.241040000000e-08, + 1.805630000000e-08, + 2.624390000000e-08, + 3.808810000000e-08, + 5.516210000000e-08,  \
+ 7.965400000000e-08, + 1.145470000000e-07, + 1.637980000000e-07, + 2.324640000000e-07, + 3.267040000000e-07,  \
+ 4.535590000000e-07, + 6.204690000000e-07, + 8.345510000000e-07, + 1.101800000000e-06, + 1.426100000000e-06,  \
+ 1.809200000000e-06, + 2.249900000000e-06, + 2.744700000000e-06, + 3.287800000000e-06, + 3.871800000000e-06,  \
+ 4.488500000000e-06, + 5.129300000000e-06, + 5.785900000000e-06, + 6.450700000000e-06, + 7.117000000000e-06,  \
+ 7.779500000000e-06, + 8.433700000000e-06, + 9.076200000000e-06, + 9.704600000000e-06, + 1.031680000000e-05,  \
+ 1.091160000000e-05, + 1.148810000000e-05, + 1.204560000000e-05, + 1.258380000000e-05, + 1.310270000000e-05,  \
+ 1.360230000000e-05, + 1.408280000000e-05, + 1.454450000000e-05, + 1.498780000000e-05, + 1.541310000000e-05,  \
+ 1.582100000000e-05, + 1.621200000000e-05, + 1.658660000000e-05, + 1.694560000000e-05, + 1.728930000000e-05,  \
+ 1.761850000000e-05, + 1.793380000000e-05, + 1.823570000000e-05, + 1.852480000000e-05, + 1.880170000000e-05,  \
+ 1.906680000000e-05, + 1.932080000000e-05, + 1.956420000000e-05, + 1.979730000000e-05, + 2.002080000000e-05,  \
+ 2.023500000000e-05, + 2.044030000000e-05, + 2.063720000000e-05, + 2.082610000000e-05, + 2.100730000000e-05,  \
+ 2.118120000000e-05, + 2.134810000000e-05, + 2.150830000000e-05, + 2.166220000000e-05, + 2.180990000000e-05,  \
+ 2.195190000000e-05, + 2.208840000000e-05, + 2.221950000000e-05, + 2.234560000000e-05, + 2.246680000000e-05 ]

.param id_pred_data_vd0.10=[ \
+ 2.888212113916e-10, + 4.175175760679e-10, + 6.071995350965e-10, + 8.853931809938e-10, + 1.291863949149e-09,  \
+ 1.884461120483e-09, + 2.747617777743e-09, + 4.004414932979e-09, + 5.833383909248e-09, + 8.492235537005e-09,  \
+ 1.235191149362e-08, + 1.794673067934e-08, + 2.604829489883e-08, + 3.777169581554e-08, + 5.472063548950e-08,  \
+ 7.916808044683e-08, + 1.142550900113e-07, + 1.641640210437e-07, + 2.342020252399e-07, + 3.307080305603e-07,  \
+ 4.607256414602e-07, + 6.314235179161e-07, + 8.493442692270e-07, + 1.119615080825e-06, + 1.445293219149e-06,  \
+ 1.826999141485e-06, + 2.262871385028e-06, + 2.748838232947e-06, + 3.279096927145e-06, + 3.846712206723e-06,  \
+ 4.444202204468e-06, + 5.064051947556e-06, + 5.699104804080e-06, + 6.342821870930e-06, + 6.989484973019e-06,  \
+ 7.634205394424e-06, + 8.272930426756e-06, + 8.902414265322e-06, + 9.520095773041e-06, + 1.012405264191e-05,  \
+ 1.071283040801e-05, + 1.128541116486e-05, + 1.184113934869e-05, + 1.237961987499e-05, + 1.290061627515e-05,  \
+ 1.340410963167e-05, + 1.389013923472e-05, + 1.435891317669e-05, + 1.481056096964e-05, + 1.524537074147e-05,  \
+ 1.566361024743e-05, + 1.606558362255e-05, + 1.645154115977e-05, + 1.682185393292e-05, + 1.717678242130e-05,  \
+ 1.751671661623e-05, + 1.784185878932e-05, + 1.815264695324e-05, + 1.844930957304e-05, + 1.873221481219e-05,  \
+ 1.900169008877e-05, + 1.925804681377e-05, + 1.950167352334e-05, + 1.973283360712e-05, + 1.995192287723e-05,  \
+ 2.015925274463e-05, + 2.035520155914e-05, + 2.054010401480e-05, + 2.071433409583e-05, + 2.087821194436e-05,  \
+ 2.103213191731e-05, + 2.117643889505e-05, + 2.131151122740e-05, + 2.143770980183e-05, + 2.155532274628e-05,  \
+ 2.166475605918e-05, + 2.176633570343e-05, + 2.186044730479e-05, + 2.194732514909e-05, + 2.202742616646e-05 ]

* Data table for Id-Vg at Vd = 0.11V
.param vg_data_vd0.11=[ \
+ 0.010000, + 0.020000, + 0.030000, + 0.040000, + 0.050000, + 0.060000, + 0.070000, + 0.080000, + 0.090000, + 0.100000,  \
+ 0.110000, + 0.120000, + 0.130000, + 0.140000, + 0.150000, + 0.160000, + 0.170000, + 0.180000, + 0.190000, + 0.200000,  \
+ 0.210000, + 0.220000, + 0.230000, + 0.240000, + 0.250000, + 0.260000, + 0.270000, + 0.280000, + 0.290000, + 0.300000,  \
+ 0.310000, + 0.320000, + 0.330000, + 0.340000, + 0.350000, + 0.360000, + 0.370000, + 0.380000, + 0.390000, + 0.400000,  \
+ 0.410000, + 0.420000, + 0.430000, + 0.440000, + 0.450000, + 0.460000, + 0.470000, + 0.480000, + 0.490000, + 0.500000,  \
+ 0.510000, + 0.520000, + 0.530000, + 0.540000, + 0.550000, + 0.560000, + 0.570000, + 0.580000, + 0.590000, + 0.600000,  \
+ 0.610000, + 0.620000, + 0.630000, + 0.640000, + 0.650000, + 0.660000, + 0.670000, + 0.680000, + 0.690000, + 0.700000,  \
+ 0.710000, + 0.720000, + 0.730000, + 0.740000, + 0.750000, + 0.760000, + 0.770000, + 0.780000, + 0.790000, + 0.800000 ]

.param id_actual_data_vd0.11=[ \
+ 2.922060000000e-10, + 4.260460000000e-10, + 6.211740000000e-10, + 9.056390000000e-10, + 1.320300000000e-09,  \
+ 1.924700000000e-09, + 2.805400000000e-09, + 4.088600000000e-09, + 5.957200000000e-09, + 8.676900000000e-09,  \
+ 1.263210000000e-08, + 1.837730000000e-08, + 2.670820000000e-08, + 3.875900000000e-08, + 5.613010000000e-08,  \
+ 8.104760000000e-08, + 1.165480000000e-07, + 1.666590000000e-07, + 2.365380000000e-07, + 3.324680000000e-07,  \
+ 4.616560000000e-07, + 6.317530000000e-07, + 8.501400000000e-07, + 1.123100000000e-06, + 1.455100000000e-06,  \
+ 1.848100000000e-06, + 2.301600000000e-06, + 2.812600000000e-06, + 3.376100000000e-06, + 3.985000000000e-06,  \
+ 4.631600000000e-06, + 5.307400000000e-06, + 6.003900000000e-06, + 6.713100000000e-06, + 7.427800000000e-06,  \
+ 8.141800000000e-06, + 8.850000000000e-06, + 9.548400000000e-06, + 1.023360000000e-05, + 1.090330000000e-05,  \
+ 1.155580000000e-05, + 1.218970000000e-05, + 1.280430000000e-05, + 1.339880000000e-05, + 1.397310000000e-05,  \
+ 1.452710000000e-05, + 1.506070000000e-05, + 1.557430000000e-05, + 1.606810000000e-05, + 1.654250000000e-05,  \
+ 1.699790000000e-05, + 1.743500000000e-05, + 1.785420000000e-05, + 1.825610000000e-05, + 1.864140000000e-05,  \
+ 1.901060000000e-05, + 1.936450000000e-05, + 1.970340000000e-05, + 2.002820000000e-05, + 2.033940000000e-05,  \
+ 2.063750000000e-05, + 2.092320000000e-05, + 2.119690000000e-05, + 2.145930000000e-05, + 2.171080000000e-05,  \
+ 2.195190000000e-05, + 2.218300000000e-05, + 2.240470000000e-05, + 2.261740000000e-05, + 2.282140000000e-05,  \
+ 2.301720000000e-05, + 2.320510000000e-05, + 2.338550000000e-05, + 2.355870000000e-05, + 2.372510000000e-05,  \
+ 2.388490000000e-05, + 2.403840000000e-05, + 2.418600000000e-05, + 2.432780000000e-05, + 2.446420000000e-05 ]

.param id_pred_data_vd0.11=[ \
+ 2.952820987723e-10, + 4.263325914522e-10, + 6.194069834820e-10, + 9.024289759907e-10, + 1.315746560593e-09,  \
+ 1.918109795440e-09, + 2.795372129327e-09, + 4.072723029935e-09, + 5.931702666828e-09, + 8.634034074362e-09,  \
+ 1.255567831038e-08, + 1.823736724305e-08, + 2.645884705998e-08, + 3.834654052071e-08, + 5.552159393574e-08,  \
+ 8.028475690480e-08, + 1.158222596587e-07, + 1.663911734795e-07, + 2.374140058237e-07, + 3.354043860782e-07,  \
+ 4.676530761571e-07, + 6.416612313842e-07, + 8.643805631436e-07, + 1.141416660175e-06, + 1.476336756241e-06,  \
+ 1.870266150945e-06, + 2.321784213564e-06, + 2.827183998306e-06, + 3.380906236998e-06, + 3.976120096922e-06,  \
+ 4.605325448210e-06, + 5.260851685307e-06, + 5.935293520452e-06, + 6.621778302360e-06, + 7.314208924072e-06,  \
+ 8.007257420104e-06, + 8.696480217623e-06, + 9.378142058267e-06, + 1.004934805678e-05, + 1.070771315426e-05,  \
+ 1.135148137109e-05, + 1.197927929752e-05, + 1.259019372810e-05, + 1.318349233770e-05, + 1.375882697175e-05,  \
+ 1.431595112081e-05, + 1.485472152126e-05, + 1.537515738164e-05, + 1.587741397088e-05, + 1.636155851884e-05,  \
+ 1.682783913566e-05, + 1.727650393150e-05, + 1.770773858880e-05, + 1.812189366319e-05, + 1.851922206697e-05,  \
+ 1.890002953587e-05, + 1.926462180563e-05, + 1.961328380276e-05, + 1.994642530917e-05, + 2.026430243859e-05,  \
+ 2.056732977508e-05, + 2.085580345010e-05, + 2.113008042215e-05, + 2.139055446605e-05, + 2.163762255805e-05,  \
+ 2.187160323956e-05, + 2.209291749750e-05, + 2.230191908893e-05, + 2.249903220218e-05, + 2.268468582770e-05,  \
+ 2.285918089910e-05, + 2.302298322320e-05, + 2.317644175491e-05, + 2.332002230105e-05, + 2.345404340304e-05,  \
+ 2.357891804422e-05, + 2.369507681578e-05, + 2.380283825914e-05, + 2.390261055552e-05, + 2.399474426056e-05 ]

* Data table for Id-Vg at Vd = 0.12V
.param vg_data_vd0.12=[ \
+ 0.010000, + 0.020000, + 0.030000, + 0.040000, + 0.050000, + 0.060000, + 0.070000, + 0.080000, + 0.090000, + 0.100000,  \
+ 0.110000, + 0.120000, + 0.130000, + 0.140000, + 0.150000, + 0.160000, + 0.170000, + 0.180000, + 0.190000, + 0.200000,  \
+ 0.210000, + 0.220000, + 0.230000, + 0.240000, + 0.250000, + 0.260000, + 0.270000, + 0.280000, + 0.290000, + 0.300000,  \
+ 0.310000, + 0.320000, + 0.330000, + 0.340000, + 0.350000, + 0.360000, + 0.370000, + 0.380000, + 0.390000, + 0.400000,  \
+ 0.410000, + 0.420000, + 0.430000, + 0.440000, + 0.450000, + 0.460000, + 0.470000, + 0.480000, + 0.490000, + 0.500000,  \
+ 0.510000, + 0.520000, + 0.530000, + 0.540000, + 0.550000, + 0.560000, + 0.570000, + 0.580000, + 0.590000, + 0.600000,  \
+ 0.610000, + 0.620000, + 0.630000, + 0.640000, + 0.650000, + 0.660000, + 0.670000, + 0.680000, + 0.690000, + 0.700000,  \
+ 0.710000, + 0.720000, + 0.730000, + 0.740000, + 0.750000, + 0.760000, + 0.770000, + 0.780000, + 0.790000, + 0.800000 ]

.param id_actual_data_vd0.12=[ \
+ 2.970960000000e-10, + 4.331320000000e-10, + 6.314420000000e-10, + 9.205150000000e-10, + 1.341900000000e-09,  \
+ 1.955900000000e-09, + 2.850700000000e-09, + 4.154000000000e-09, + 6.052000000000e-09, + 8.814100000000e-09,  \
+ 1.283060000000e-08, + 1.866420000000e-08, + 2.712270000000e-08, + 3.935690000000e-08, + 5.699100000000e-08,  \
+ 8.228430000000e-08, + 1.183180000000e-07, + 1.691840000000e-07, + 2.401160000000e-07, + 3.375060000000e-07,  \
+ 4.686930000000e-07, + 6.414950000000e-07, + 8.634970000000e-07, + 1.141200000000e-06, + 1.479400000000e-06,  \
+ 1.880600000000e-06, + 2.344500000000e-06, + 2.868800000000e-06, + 3.448800000000e-06, + 4.078200000000e-06,  \
+ 4.749500000000e-06, + 5.454600000000e-06, + 6.185100000000e-06, + 6.932800000000e-06, + 7.690300000000e-06,  \
+ 8.450800000000e-06, + 9.208400000000e-06, + 9.958400000000e-06, + 1.069700000000e-05, + 1.142120000000e-05,  \
+ 1.212880000000e-05, + 1.281800000000e-05, + 1.348770000000e-05, + 1.413710000000e-05, + 1.476560000000e-05,  \
+ 1.537310000000e-05, + 1.595930000000e-05, + 1.652440000000e-05, + 1.706860000000e-05, + 1.759220000000e-05,  \
+ 1.809550000000e-05, + 1.857900000000e-05, + 1.904340000000e-05, + 1.948900000000e-05, + 1.991650000000e-05,  \
+ 2.032660000000e-05, + 2.071980000000e-05, + 2.109680000000e-05, + 2.145810000000e-05, + 2.180460000000e-05,  \
+ 2.213660000000e-05, + 2.245490000000e-05, + 2.276000000000e-05, + 2.305250000000e-05, + 2.333290000000e-05,  \
+ 2.360180000000e-05, + 2.385970000000e-05, + 2.410700000000e-05, + 2.434420000000e-05, + 2.457190000000e-05,  \
+ 2.479030000000e-05, + 2.500000000000e-05, + 2.520120000000e-05, + 2.539450000000e-05, + 2.558000000000e-05,  \
+ 2.575830000000e-05, + 2.592950000000e-05, + 2.609400000000e-05, + 2.625210000000e-05, + 2.640400000000e-05 ]

.param id_pred_data_vd0.12=[ \
+ 3.011657589980e-10, + 4.343790394046e-10, + 6.305873156975e-10, + 9.180662630115e-10, + 1.337685695546e-09,  \
+ 1.949021850578e-09, + 2.839225174966e-09, + 4.135463171906e-09, + 6.022046221688e-09, + 8.764331766997e-09,  \
+ 1.274283675912e-08, + 1.850365833889e-08, + 2.683318143681e-08, + 3.886673766829e-08, + 5.623829679280e-08,  \
+ 8.126902457661e-08, + 1.171790472654e-07, + 1.682807851466e-07, + 2.400854555162e-07, + 3.392421967874e-07,  \
+ 4.732409979624e-07, + 6.498524453491e-07, + 8.763780715526e-07, + 1.158834238595e-06, + 1.501248407294e-06,  \
+ 1.905216195155e-06, + 2.369764188188e-06, + 2.891561016440e-06, + 3.465326080914e-06, + 4.084414104000e-06,  \
+ 4.741357115563e-06, + 5.428439180832e-06, + 6.138083408587e-06, + 6.863198359497e-06, + 7.597338699270e-06,  \
+ 8.334842277691e-06, + 9.070867672563e-06, + 9.801345295273e-06, + 1.052291278029e-05, + 1.123288355302e-05,  \
+ 1.192910625832e-05, + 1.260994904442e-05, + 1.327412581304e-05, + 1.392070669681e-05, + 1.454907964217e-05,  \
+ 1.515874697361e-05, + 1.574943889864e-05, + 1.632103929296e-05, + 1.687349402346e-05, + 1.740682579111e-05,  \
+ 1.792117254809e-05, + 1.841661287472e-05, + 1.889345236123e-05, + 1.935186737683e-05, + 1.979206921533e-05,  \
+ 2.021435124334e-05, + 2.061900158878e-05, + 2.100637299009e-05, + 2.137670817319e-05, + 2.173043321818e-05,  \
+ 2.206783974543e-05, + 2.238929271698e-05, + 2.269524615258e-05, + 2.298599516507e-05, + 2.326196059585e-05,  \
+ 2.352353185415e-05, + 2.377119439188e-05, + 2.400531840976e-05, + 2.422628807835e-05, + 2.443458361086e-05,  \
+ 2.463061886374e-05, + 2.481485134922e-05, + 2.498771063983e-05, + 2.514956169762e-05, + 2.530090219807e-05,  \
+ 2.544218266848e-05, + 2.557371568400e-05, + 2.569604956079e-05, + 2.580946544185e-05, + 2.591446100269e-05 ]

* Data table for Id-Vg at Vd = 0.13V
.param vg_data_vd0.13=[ \
+ 0.010000, + 0.020000, + 0.030000, + 0.040000, + 0.050000, + 0.060000, + 0.070000, + 0.080000, + 0.090000, + 0.100000,  \
+ 0.110000, + 0.120000, + 0.130000, + 0.140000, + 0.150000, + 0.160000, + 0.170000, + 0.180000, + 0.190000, + 0.200000,  \
+ 0.210000, + 0.220000, + 0.230000, + 0.240000, + 0.250000, + 0.260000, + 0.270000, + 0.280000, + 0.290000, + 0.300000,  \
+ 0.310000, + 0.320000, + 0.330000, + 0.340000, + 0.350000, + 0.360000, + 0.370000, + 0.380000, + 0.390000, + 0.400000,  \
+ 0.410000, + 0.420000, + 0.430000, + 0.440000, + 0.450000, + 0.460000, + 0.470000, + 0.480000, + 0.490000, + 0.500000,  \
+ 0.510000, + 0.520000, + 0.530000, + 0.540000, + 0.550000, + 0.560000, + 0.570000, + 0.580000, + 0.590000, + 0.600000,  \
+ 0.610000, + 0.620000, + 0.630000, + 0.640000, + 0.650000, + 0.660000, + 0.670000, + 0.680000, + 0.690000, + 0.700000,  \
+ 0.710000, + 0.720000, + 0.730000, + 0.740000, + 0.750000, + 0.760000, + 0.770000, + 0.780000, + 0.790000, + 0.800000 ]

.param id_actual_data_vd0.13=[ \
+ 3.016350000000e-10, + 4.397030000000e-10, + 6.409550000000e-10, + 9.342860000000e-10, + 1.361800000000e-09,  \
+ 1.984800000000e-09, + 2.892400000000e-09, + 4.214400000000e-09, + 6.139300000000e-09, + 8.940300000000e-09,  \
+ 1.301300000000e-08, + 1.892760000000e-08, + 2.750250000000e-08, + 3.990390000000e-08, + 5.777730000000e-08,  \
+ 8.341130000000e-08, + 1.199280000000e-07, + 1.714710000000e-07, + 2.433460000000e-07, + 3.420330000000e-07,  \
+ 4.749800000000e-07, + 6.501380000000e-07, + 8.752560000000e-07, + 1.157100000000e-06, + 1.500500000000e-06,  \
+ 1.908400000000e-06, + 2.381000000000e-06, + 2.916100000000e-06, + 3.509700000000e-06, + 4.155800000000e-06,  \
+ 4.847600000000e-06, + 5.577100000000e-06, + 6.336400000000e-06, + 7.117200000000e-06, + 7.912000000000e-06,  \
+ 8.713600000000e-06, + 9.515700000000e-06, + 1.031310000000e-05, + 1.110120000000e-05, + 1.187650000000e-05,  \
+ 1.263630000000e-05, + 1.337830000000e-05, + 1.410110000000e-05, + 1.480350000000e-05, + 1.548470000000e-05,  \
+ 1.614440000000e-05, + 1.678230000000e-05, + 1.739820000000e-05, + 1.799220000000e-05, + 1.856470000000e-05,  \
+ 1.911570000000e-05, + 1.964590000000e-05, + 2.015550000000e-05, + 2.064520000000e-05, + 2.111550000000e-05,  \
+ 2.156690000000e-05, + 2.200020000000e-05, + 2.241580000000e-05, + 2.281460000000e-05, + 2.319700000000e-05,  \
+ 2.356380000000e-05, + 2.391550000000e-05, + 2.425280000000e-05, + 2.457620000000e-05, + 2.488640000000e-05,  \
+ 2.518390000000e-05, + 2.546920000000e-05, + 2.574300000000e-05, + 2.600560000000e-05, + 2.625760000000e-05,  \
+ 2.649940000000e-05, + 2.673150000000e-05, + 2.695420000000e-05, + 2.716810000000e-05, + 2.737350000000e-05,  \
+ 2.757070000000e-05, + 2.776020000000e-05, + 2.794220000000e-05, + 2.811700000000e-05, + 2.828500000000e-05 ]

.param id_pred_data_vd0.13=[ \
+ 3.066067399971e-10, + 4.418489818470e-10, + 6.410179986815e-10, + 9.327219041566e-10, + 1.358314332123e-09,  \
+ 1.978142236680e-09, + 2.880601872590e-09, + 4.194753842057e-09, + 6.107592867011e-09, + 8.887953057979e-09,  \
+ 1.292070187731e-08, + 1.875687033248e-08, + 2.718873361118e-08, + 3.935887576745e-08, + 5.691141325315e-08,  \
+ 8.218355389999e-08, + 1.184208628047e-07, + 1.699775623365e-07, + 2.424329375117e-07, + 3.425409090596e-07,  \
+ 4.779484288520e-07, + 6.566435104105e-07, + 8.862206095728e-07, + 1.173047648990e-06, + 1.521558533568e-06,  \
+ 1.933775956786e-06, + 2.409151311440e-06, + 2.944735952042e-06, + 3.535564155754e-06, + 4.175199719612e-06,  \
+ 4.856294617639e-06, + 5.571147303272e-06, + 6.312094301393e-06, + 7.071859945427e-06, + 7.843790008337e-06,  \
+ 8.621909873909e-06, + 9.401065472048e-06, + 1.017683767714e-05, + 1.094553001167e-05, + 1.170408824692e-05,  \
+ 1.245005310921e-05, + 1.318145434198e-05, + 1.389674922393e-05, + 1.459472892748e-05, + 1.527450433059e-05,  \
+ 1.593537643203e-05, + 1.657694985624e-05, + 1.719879423035e-05, + 1.780082820915e-05, + 1.838286829297e-05,  \
+ 1.894498069305e-05, + 1.948718811036e-05, + 2.000963810133e-05, + 2.051242146990e-05, + 2.099577468471e-05,  \
+ 2.145996259060e-05, + 2.190518760472e-05, + 2.233179780887e-05, + 2.274006939842e-05, + 2.313031262020e-05,  \
+ 2.350289825699e-05, + 2.385817628237e-05, + 2.419652315439e-05, + 2.451842694427e-05, + 2.482419789885e-05,  \
+ 2.511432598112e-05, + 2.538921980886e-05, + 2.564933151007e-05, + 2.589508862002e-05, + 2.612704920466e-05,  \
+ 2.634552918607e-05, + 2.655112257344e-05, + 2.674423609278e-05, + 2.692529538763e-05, + 2.709489257541e-05,  \
+ 2.725338898017e-05, + 2.740123483818e-05, + 2.753892767942e-05, + 2.766694233287e-05, + 2.778564012260e-05 ]

* Data table for Id-Vg at Vd = 0.14V
.param vg_data_vd0.14=[ \
+ 0.010000, + 0.020000, + 0.030000, + 0.040000, + 0.050000, + 0.060000, + 0.070000, + 0.080000, + 0.090000, + 0.100000,  \
+ 0.110000, + 0.120000, + 0.130000, + 0.140000, + 0.150000, + 0.160000, + 0.170000, + 0.180000, + 0.190000, + 0.200000,  \
+ 0.210000, + 0.220000, + 0.230000, + 0.240000, + 0.250000, + 0.260000, + 0.270000, + 0.280000, + 0.290000, + 0.300000,  \
+ 0.310000, + 0.320000, + 0.330000, + 0.340000, + 0.350000, + 0.360000, + 0.370000, + 0.380000, + 0.390000, + 0.400000,  \
+ 0.410000, + 0.420000, + 0.430000, + 0.440000, + 0.450000, + 0.460000, + 0.470000, + 0.480000, + 0.490000, + 0.500000,  \
+ 0.510000, + 0.520000, + 0.530000, + 0.540000, + 0.550000, + 0.560000, + 0.570000, + 0.580000, + 0.590000, + 0.600000,  \
+ 0.610000, + 0.620000, + 0.630000, + 0.640000, + 0.650000, + 0.660000, + 0.670000, + 0.680000, + 0.690000, + 0.700000,  \
+ 0.710000, + 0.720000, + 0.730000, + 0.740000, + 0.750000, + 0.760000, + 0.770000, + 0.780000, + 0.790000, + 0.800000 ]

.param id_actual_data_vd0.14=[ \
+ 3.059300000000e-10, + 4.459170000000e-10, + 6.499420000000e-10, + 9.472830000000e-10, + 1.380600000000e-09,  \
+ 2.011900000000e-09, + 2.931700000000e-09, + 4.271200000000e-09, + 6.221300000000e-09, + 9.058800000000e-09,  \
+ 1.318400000000e-08, + 1.917420000000e-08, + 2.785770000000e-08, + 4.041480000000e-08, + 5.851040000000e-08,  \
+ 8.446020000000e-08, + 1.214220000000e-07, + 1.735890000000e-07, + 2.463260000000e-07, + 3.461910000000e-07,  \
+ 4.807240000000e-07, + 6.579870000000e-07, + 8.858570000000e-07, + 1.171200000000e-06, + 1.519200000000e-06,  \
+ 1.932900000000e-06, + 2.412700000000e-06, + 2.956900000000e-06, + 3.561700000000e-06, + 4.221800000000e-06,  \
+ 4.930400000000e-06, + 5.680400000000e-06, + 6.463700000000e-06, + 7.272700000000e-06, + 8.099600000000e-06,  \
+ 8.937200000000e-06, + 9.779000000000e-06, + 1.061910000000e-05, + 1.145260000000e-05, + 1.227540000000e-05,  \
+ 1.308410000000e-05, + 1.387620000000e-05, + 1.464960000000e-05, + 1.540300000000e-05, + 1.613520000000e-05,  \
+ 1.684560000000e-05, + 1.753370000000e-05, + 1.819940000000e-05, + 1.884250000000e-05, + 1.946310000000e-05,  \
+ 2.006150000000e-05, + 2.063790000000e-05, + 2.119280000000e-05, + 2.172660000000e-05, + 2.223980000000e-05,  \
+ 2.273290000000e-05, + 2.320660000000e-05, + 2.366140000000e-05, + 2.409810000000e-05, + 2.451710000000e-05,  \
+ 2.491930000000e-05, + 2.530510000000e-05, + 2.567520000000e-05, + 2.603040000000e-05, + 2.637100000000e-05,  \
+ 2.669790000000e-05, + 2.701140000000e-05, + 2.731220000000e-05, + 2.760090000000e-05, + 2.787790000000e-05,  \
+ 2.814370000000e-05, + 2.839880000000e-05, + 2.864380000000e-05, + 2.887890000000e-05, + 2.910460000000e-05,  \
+ 2.932140000000e-05, + 2.952950000000e-05, + 2.972950000000e-05, + 2.992160000000e-05, + 3.010610000000e-05 ]

.param id_pred_data_vd0.14=[ \
+ 3.116929470082e-10, + 4.488720684037e-10, + 6.508839778263e-10, + 9.466585915163e-10, + 1.378021270426e-09,  \
+ 2.006057293613e-09, + 2.920371890980e-09, + 4.251896967844e-09, + 6.190274035589e-09, + 9.007895442892e-09,  \
+ 1.309384259685e-08, + 1.900403105992e-08, + 2.753620350404e-08, + 3.983976114341e-08, + 5.756754319464e-08,  \
+ 8.306962399729e-08, + 1.196119274027e-07, + 1.715809662528e-07, + 2.446080361551e-07, + 3.455284740994e-07,  \
+ 4.821105585506e-07, + 6.625190872001e-07, + 8.945803529059e-07, + 1.184967077279e-06, + 1.538460728625e-06,  \
+ 1.957473814400e-06, + 2.441851247568e-06, + 2.989009772136e-06, + 3.594307345338e-06, + 4.251566970197e-06,  \
+ 4.953591997037e-06, + 5.692753111362e-06, + 6.461373632192e-06, + 7.252070499817e-06, + 8.058021412580e-06,  \
+ 8.873025944922e-06, + 9.691681771073e-06, + 1.050924052834e-05, + 1.132172546932e-05, + 1.212575574755e-05,  \
+ 1.291857595788e-05, + 1.369787787553e-05, + 1.446189722628e-05, + 1.520913458080e-05, + 1.593844397576e-05,  \
+ 1.664890762186e-05, + 1.733990007779e-05, + 1.801089674700e-05, + 1.866151054855e-05, + 1.929158868734e-05,  \
+ 1.990093151107e-05, + 2.048954309430e-05, + 2.105737454258e-05, + 2.160452364478e-05, + 2.213116560597e-05,  \
+ 2.263745933305e-05, + 2.312358206837e-05, + 2.358984347666e-05, + 2.403644524748e-05, + 2.446379279718e-05,  \
+ 2.487215708243e-05, + 2.526193333324e-05, + 2.563350659329e-05, + 2.598733728519e-05, + 2.632372692460e-05,  \
+ 2.664319297764e-05, + 2.694622846320e-05, + 2.723322249949e-05, + 2.750467217993e-05, + 2.776110923151e-05,  \
+ 2.800302667310e-05, + 2.823081362294e-05, + 2.844512404408e-05, + 2.864633075660e-05, + 2.883498789743e-05,  \
+ 2.901163126808e-05, + 2.917663776316e-05, + 2.933063689852e-05, + 2.947400556877e-05, + 2.960725920275e-05 ]

* Data table for Id-Vg at Vd = 0.15V
.param vg_data_vd0.15=[ \
+ 0.010000, + 0.020000, + 0.030000, + 0.040000, + 0.050000, + 0.060000, + 0.070000, + 0.080000, + 0.090000, + 0.100000,  \
+ 0.110000, + 0.120000, + 0.130000, + 0.140000, + 0.150000, + 0.160000, + 0.170000, + 0.180000, + 0.190000, + 0.200000,  \
+ 0.210000, + 0.220000, + 0.230000, + 0.240000, + 0.250000, + 0.260000, + 0.270000, + 0.280000, + 0.290000, + 0.300000,  \
+ 0.310000, + 0.320000, + 0.330000, + 0.340000, + 0.350000, + 0.360000, + 0.370000, + 0.380000, + 0.390000, + 0.400000,  \
+ 0.410000, + 0.420000, + 0.430000, + 0.440000, + 0.450000, + 0.460000, + 0.470000, + 0.480000, + 0.490000, + 0.500000,  \
+ 0.510000, + 0.520000, + 0.530000, + 0.540000, + 0.550000, + 0.560000, + 0.570000, + 0.580000, + 0.590000, + 0.600000,  \
+ 0.610000, + 0.620000, + 0.630000, + 0.640000, + 0.650000, + 0.660000, + 0.670000, + 0.680000, + 0.690000, + 0.700000,  \
+ 0.710000, + 0.720000, + 0.730000, + 0.740000, + 0.750000, + 0.760000, + 0.770000, + 0.780000, + 0.790000, + 0.800000 ]

.param id_actual_data_vd0.15=[ \
+ 3.100540000000e-10, + 4.518770000000e-10, + 6.585570000000e-10, + 9.597330000000e-10, + 1.398600000000e-09,  \
+ 2.037900000000e-09, + 2.969200000000e-09, + 4.325400000000e-09, + 6.299600000000e-09, + 9.171700000000e-09,  \
+ 1.334680000000e-08, + 1.940880000000e-08, + 2.819520000000e-08, + 4.089960000000e-08, + 5.920510000000e-08,  \
+ 8.545220000000e-08, + 1.228330000000e-07, + 1.755820000000e-07, + 2.491240000000e-07, + 3.500790000000e-07,  \
+ 4.860710000000e-07, + 6.652510000000e-07, + 8.956010000000e-07, + 1.184100000000e-06, + 1.536100000000e-06,  \
+ 1.954800000000e-06, + 2.440800000000e-06, + 2.992700000000e-06, + 3.607000000000e-06, + 4.278700000000e-06,  \
+ 5.001500000000e-06, + 5.768500000000e-06, + 6.572200000000e-06, + 7.404900000000e-06, + 8.259300000000e-06,  \
+ 9.128100000000e-06, + 1.000470000000e-05, + 1.088290000000e-05, + 1.175750000000e-05, + 1.262380000000e-05,  \
+ 1.347810000000e-05, + 1.431720000000e-05, + 1.513860000000e-05, + 1.594060000000e-05, + 1.672180000000e-05,  \
+ 1.748120000000e-05, + 1.821810000000e-05, + 1.893220000000e-05, + 1.962320000000e-05, + 2.029110000000e-05,  \
+ 2.093610000000e-05, + 2.155830000000e-05, + 2.215800000000e-05, + 2.273560000000e-05, + 2.329160000000e-05,  \
+ 2.382650000000e-05, + 2.434070000000e-05, + 2.483500000000e-05, + 2.530990000000e-05, + 2.576600000000e-05,  \
+ 2.620390000000e-05, + 2.662440000000e-05, + 2.702790000000e-05, + 2.741530000000e-05, + 2.778700000000e-05,  \
+ 2.814380000000e-05, + 2.848620000000e-05, + 2.881470000000e-05, + 2.913000000000e-05, + 2.943260000000e-05,  \
+ 2.972300000000e-05, + 3.000180000000e-05, + 3.026940000000e-05, + 3.052620000000e-05, + 3.077290000000e-05,  \
+ 3.100960000000e-05, + 3.123700000000e-05, + 3.145540000000e-05, + 3.166510000000e-05, + 3.186650000000e-05 ]

.param id_pred_data_vd0.15=[ \
+ 3.164855377769e-10, + 4.555236521320e-10, + 6.602947522083e-10, + 9.600418460209e-10, + 1.397039151030e-09,  \
+ 2.033098622789e-09, + 2.959027156635e-09, + 4.307617729182e-09, + 6.271229935351e-09, + 9.125821165412e-09,  \
+ 1.326480365549e-08, + 1.924907380157e-08, + 2.788211688198e-08, + 4.031965374907e-08, + 5.822304132153e-08,  \
+ 8.395375061809e-08, + 1.207944080761e-07, + 1.731582642606e-07, + 2.467156889452e-07, + 3.483657906145e-07,  \
+ 4.859697924076e-07, + 6.678313411612e-07, + 9.019683602673e-07, + 1.195294589706e-06, + 1.552899539092e-06,  \
+ 1.977528609132e-06, + 2.469389710313e-06, + 3.026255035365e-06, + 3.643800482678e-06, + 4.316111790104e-06,  \
+ 5.036199945607e-06, + 5.796542245662e-06, + 6.589511758648e-06, + 7.407664088532e-06, + 8.244065065810e-06,  \
+ 9.092390064325e-06, + 9.946962745744e-06, + 1.080284673662e-05, + 1.165576977655e-05, + 1.250209643331e-05,  \
+ 1.333876862191e-05, + 1.416324666934e-05, + 1.497341436334e-05, + 1.576754839334e-05, + 1.654430634517e-05,  \
+ 1.730248986860e-05, + 1.804132953112e-05, + 1.876003298094e-05, + 1.945812764461e-05, + 2.013519770117e-05,  \
+ 2.079102487187e-05, + 2.142538432963e-05, + 2.203820622526e-05, + 2.262947964482e-05, + 2.319924169569e-05,  \
+ 2.374762771069e-05, + 2.427480794722e-05, + 2.478086753399e-05, + 2.526622774894e-05, + 2.573106758064e-05,  \
+ 2.617575810291e-05, + 2.660059835762e-05, + 2.700599652599e-05, + 2.739235424087e-05, + 2.776011024253e-05,  \
+ 2.810971418512e-05, + 2.844165937859e-05, + 2.875634309021e-05, + 2.905433284468e-05, + 2.933612631750e-05,  \
+ 2.960224301205e-05, + 2.985322862514e-05, + 3.008955027326e-05, + 3.031175365322e-05, + 3.052043030038e-05,  \
+ 3.071603860008e-05, + 3.089910678682e-05, + 3.107019801973e-05, + 3.122981215711e-05, + 3.137842504657e-05 ]

* Data table for Id-Vg at Vd = 0.16V
.param vg_data_vd0.16=[ \
+ 0.010000, + 0.020000, + 0.030000, + 0.040000, + 0.050000, + 0.060000, + 0.070000, + 0.080000, + 0.090000, + 0.100000,  \
+ 0.110000, + 0.120000, + 0.130000, + 0.140000, + 0.150000, + 0.160000, + 0.170000, + 0.180000, + 0.190000, + 0.200000,  \
+ 0.210000, + 0.220000, + 0.230000, + 0.240000, + 0.250000, + 0.260000, + 0.270000, + 0.280000, + 0.290000, + 0.300000,  \
+ 0.310000, + 0.320000, + 0.330000, + 0.340000, + 0.350000, + 0.360000, + 0.370000, + 0.380000, + 0.390000, + 0.400000,  \
+ 0.410000, + 0.420000, + 0.430000, + 0.440000, + 0.450000, + 0.460000, + 0.470000, + 0.480000, + 0.490000, + 0.500000,  \
+ 0.510000, + 0.520000, + 0.530000, + 0.540000, + 0.550000, + 0.560000, + 0.570000, + 0.580000, + 0.590000, + 0.600000,  \
+ 0.610000, + 0.620000, + 0.630000, + 0.640000, + 0.650000, + 0.660000, + 0.670000, + 0.680000, + 0.690000, + 0.700000,  \
+ 0.710000, + 0.720000, + 0.730000, + 0.740000, + 0.750000, + 0.760000, + 0.770000, + 0.780000, + 0.790000, + 0.800000 ]

.param id_actual_data_vd0.16=[ \
+ 3.140550000000e-10, + 4.576570000000e-10, + 6.669050000000e-10, + 9.717900000000e-10, + 1.416000000000e-09,  \
+ 2.063100000000e-09, + 3.005500000000e-09, + 4.377800000000e-09, + 6.375100000000e-09, + 9.280600000000e-09,  \
+ 1.350370000000e-08, + 1.963450000000e-08, + 2.851970000000e-08, + 4.136520000000e-08, + 5.987130000000e-08,  \
+ 8.640230000000e-08, + 1.241810000000e-07, + 1.774840000000e-07, + 2.517840000000e-07, + 3.537650000000e-07,  \
+ 4.911180000000e-07, + 6.720740000000e-07, + 9.047000000000e-07, + 1.196100000000e-06, + 1.551700000000e-06,  \
+ 1.974800000000e-06, + 2.466200000000e-06, + 3.024800000000e-06, + 3.647200000000e-06, + 4.328800000000e-06,  \
+ 5.063600000000e-06, + 5.844900000000e-06, + 6.665700000000e-06, + 7.518600000000e-06, + 8.396400000000e-06,  \
+ 9.292000000000e-06, + 1.019890000000e-05, + 1.111080000000e-05, + 1.202210000000e-05, + 1.292790000000e-05,  \
+ 1.382390000000e-05, + 1.470670000000e-05, + 1.557320000000e-05, + 1.642140000000e-05, + 1.724930000000e-05,  \
+ 1.805570000000e-05, + 1.883970000000e-05, + 1.960080000000e-05, + 2.033850000000e-05, + 2.105260000000e-05,  \
+ 2.174320000000e-05, + 2.241030000000e-05, + 2.305420000000e-05, + 2.367520000000e-05, + 2.427360000000e-05,  \
+ 2.485000000000e-05, + 2.540480000000e-05, + 2.593850000000e-05, + 2.645170000000e-05, + 2.694500000000e-05,  \
+ 2.741900000000e-05, + 2.787440000000e-05, + 2.831180000000e-05, + 2.873180000000e-05, + 2.913510000000e-05,  \
+ 2.952230000000e-05, + 2.989390000000e-05, + 3.025070000000e-05, + 3.059320000000e-05, + 3.092190000000e-05,  \
+ 3.123740000000e-05, + 3.154030000000e-05, + 3.183100000000e-05, + 3.211020000000e-05, + 3.237810000000e-05,  \
+ 3.263540000000e-05, + 3.288240000000e-05, + 3.311950000000e-05, + 3.334730000000e-05, + 3.356600000000e-05 ]

.param id_pred_data_vd0.16=[ \
+ 3.210287857769e-10, + 4.618654614319e-10, + 6.693264964497e-10, + 9.729694028238e-10, + 1.415505579416e-09,  \
+ 2.059469892401e-09, + 2.996842454195e-09, + 4.362318293261e-09, + 6.350998660309e-09, + 9.242517080565e-09,  \
+ 1.343486133010e-08, + 1.949415946001e-08, + 2.822974238370e-08, + 4.080428880116e-08, + 5.888731266168e-08,  \
+ 8.485144462611e-08, + 1.219947716891e-07, + 1.747517853801e-07, + 2.488254176569e-07, + 3.511621980579e-07,  \
+ 4.896970131085e-07, + 6.728385051247e-07, + 9.087518265005e-07, + 1.204558648169e-06, + 1.565590500832e-06,  \
+ 1.994895574171e-06, + 2.493001229595e-06, + 3.058001166210e-06, + 3.685896517709e-06, + 4.371028626338e-06,  \
+ 5.106644821353e-06, + 5.885363207199e-06, + 6.699620280415e-06, + 7.542030652985e-06, + 8.405562839471e-06,  \
+ 9.283786057495e-06, + 1.017087721266e-05, + 1.106171403080e-05, + 1.195178483613e-05, + 1.283719786443e-05,  \
+ 1.371465972625e-05, + 1.458141021430e-05, + 1.543503371067e-05, + 1.627361285500e-05, + 1.709552132525e-05,  \
+ 1.789942034520e-05, + 1.868421211839e-05, + 1.944901072420e-05, + 2.019316656515e-05, + 2.091606846079e-05,  \
+ 2.161731943488e-05, + 2.229661447927e-05, + 2.295378362760e-05, + 2.358866855502e-05, + 2.420124597847e-05,  \
+ 2.479154150933e-05, + 2.535963896662e-05, + 2.590570133179e-05, + 2.642992418259e-05, + 2.693257993087e-05,  \
+ 2.741387579590e-05, + 2.787424949929e-05, + 2.831396181136e-05, + 2.873346908018e-05, + 2.913320204243e-05,  \
+ 2.951360540465e-05, + 2.987511688843e-05, + 3.021828364581e-05, + 3.054356435314e-05, + 3.085151081905e-05,  \
+ 3.114268649369e-05, + 3.141763852909e-05, + 3.167682560161e-05, + 3.192088566720e-05, + 3.215041942894e-05,  \
+ 3.236585529521e-05, + 3.256785683334e-05, + 3.275693161413e-05, + 3.293356625363e-05, + 3.309839870781e-05 ]

* Data table for Id-Vg at Vd = 0.17V
.param vg_data_vd0.17=[ \
+ 0.010000, + 0.020000, + 0.030000, + 0.040000, + 0.050000, + 0.060000, + 0.070000, + 0.080000, + 0.090000, + 0.100000,  \
+ 0.110000, + 0.120000, + 0.130000, + 0.140000, + 0.150000, + 0.160000, + 0.170000, + 0.180000, + 0.190000, + 0.200000,  \
+ 0.210000, + 0.220000, + 0.230000, + 0.240000, + 0.250000, + 0.260000, + 0.270000, + 0.280000, + 0.290000, + 0.300000,  \
+ 0.310000, + 0.320000, + 0.330000, + 0.340000, + 0.350000, + 0.360000, + 0.370000, + 0.380000, + 0.390000, + 0.400000,  \
+ 0.410000, + 0.420000, + 0.430000, + 0.440000, + 0.450000, + 0.460000, + 0.470000, + 0.480000, + 0.490000, + 0.500000,  \
+ 0.510000, + 0.520000, + 0.530000, + 0.540000, + 0.550000, + 0.560000, + 0.570000, + 0.580000, + 0.590000, + 0.600000,  \
+ 0.610000, + 0.620000, + 0.630000, + 0.640000, + 0.650000, + 0.660000, + 0.670000, + 0.680000, + 0.690000, + 0.700000,  \
+ 0.710000, + 0.720000, + 0.730000, + 0.740000, + 0.750000, + 0.760000, + 0.770000, + 0.780000, + 0.790000, + 0.800000 ]

.param id_actual_data_vd0.17=[ \
+ 3.179690000000e-10, + 4.633080000000e-10, + 6.750620000000e-10, + 9.835630000000e-10, + 1.433000000000e-09,  \
+ 2.087600000000e-09, + 3.040900000000e-09, + 4.428800000000e-09, + 6.448600000000e-09, + 9.386500000000e-09,  \
+ 1.365610000000e-08, + 1.985370000000e-08, + 2.883450000000e-08, + 4.181630000000e-08, + 6.051620000000e-08,  \
+ 8.732070000000e-08, + 1.254820000000e-07, + 1.793160000000e-07, + 2.543410000000e-07, + 3.572970000000e-07,  \
+ 4.959370000000e-07, + 6.785600000000e-07, + 9.133040000000e-07, + 1.207400000000e-06, + 1.566200000000e-06,  \
+ 1.993300000000e-06, + 2.489600000000e-06, + 3.054000000000e-06, + 3.683500000000e-06, + 4.373600000000e-06,  \
+ 5.118600000000e-06, + 5.912100000000e-06, + 6.747400000000e-06, + 7.617400000000e-06, + 8.515200000000e-06,  \
+ 9.434000000000e-06, + 1.036700000000e-05, + 1.130830000000e-05, + 1.225220000000e-05, + 1.319330000000e-05,  \
+ 1.412730000000e-05, + 1.505020000000e-05, + 1.595870000000e-05, + 1.685020000000e-05, + 1.772240000000e-05,  \
+ 1.857370000000e-05, + 1.940300000000e-05, + 2.020940000000e-05, + 2.099230000000e-05, + 2.175140000000e-05,  \
+ 2.248650000000e-05, + 2.319760000000e-05, + 2.388490000000e-05, + 2.454860000000e-05, + 2.518890000000e-05,  \
+ 2.580630000000e-05, + 2.640120000000e-05, + 2.697420000000e-05, + 2.752560000000e-05, + 2.805610000000e-05,  \
+ 2.856630000000e-05, + 2.905690000000e-05, + 2.952830000000e-05, + 2.998120000000e-05, + 3.041630000000e-05,  \
+ 3.083430000000e-05, + 3.123560000000e-05, + 3.162100000000e-05, + 3.199100000000e-05, + 3.234630000000e-05,  \
+ 3.268730000000e-05, + 3.301480000000e-05, + 3.332910000000e-05, + 3.363090000000e-05, + 3.392060000000e-05,  \
+ 3.419870000000e-05, + 3.446570000000e-05, + 3.472200000000e-05, + 3.496810000000e-05, + 3.520440000000e-05 ]

.param id_pred_data_vd0.17=[ \
+ 3.253566083217e-10, + 4.679365894766e-10, + 6.780302364007e-10, + 9.855070226550e-10, + 1.433510510296e-09,  \
+ 2.085275978558e-09, + 3.033966198274e-09, + 4.416163097432e-09, + 6.429819379150e-09, + 9.358365637979e-09,  \
+ 1.360450426091e-08, + 1.973997584059e-08, + 2.858047665200e-08, + 4.129592809932e-08, + 5.956484017133e-08,  \
+ 8.577091534789e-08, + 1.232270409446e-07, + 1.763870307059e-07, + 2.509804676265e-07, + 3.539911836015e-07,  \
+ 4.934076446261e-07, + 6.777203680031e-07, + 9.152091706710e-07, + 1.213151390402e-06, + 1.577091024956e-06,  \
+ 2.010320349655e-06, + 2.513655417715e-06, + 3.085495354753e-06, + 3.722119527083e-06, + 4.418149837875e-06,  \
+ 5.167064664420e-06, + 5.961656206637e-06, + 6.794479486416e-06, + 7.658189097128e-06, + 8.545771743229e-06,  \
+ 9.450705183554e-06, + 1.036706460582e-05, + 1.128956653702e-05, + 1.221354657901e-05, + 1.313490189204e-05,  \
+ 1.405013324984e-05, + 1.495618918852e-05, + 1.585054640600e-05, + 1.673096361628e-05, + 1.759562626830e-05,  \
+ 1.844299564254e-05, + 1.927175318997e-05, + 2.008087103604e-05, + 2.086943510221e-05, + 2.163675890188e-05,  \
+ 2.238222645246e-05, + 2.310542462510e-05, + 2.380606398219e-05, + 2.448387240293e-05, + 2.513872372219e-05,  \
[...]
+ 6.356640000000e-05, + 6.376520000000e-05, + 6.395710000000e-05, + 6.414230000000e-05, + 6.432140000000e-05,  \
+ 6.449470000000e-05, + 6.466250000000e-05, + 6.482520000000e-05, + 6.498300000000e-05, + 6.513620000000e-05,  \
+ 6.528510000000e-05, + 6.542980000000e-05, + 6.557070000000e-05, + 6.570790000000e-05, + 6.584170000000e-05,  \
+ 6.597220000000e-05, + 6.609950000000e-05, + 6.622390000000e-05, + 6.634540000000e-05, + 6.646430000000e-05 ]

.param id_pred_data_vg0.77=[ \
+ 2.358541823924e-06, + 4.680624988396e-06, + 6.964712374611e-06, + 9.209263953380e-06, + 1.141282846220e-05,  \
+ 1.357392029604e-05, + 1.569113897858e-05, + 1.776316668838e-05, + 1.978864398552e-05, + 2.176633570343e-05,  \
+ 2.369507681578e-05, + 2.557371568400e-05, + 2.740123483818e-05, + 2.917663776316e-05, + 3.089910678682e-05,  \
+ 3.256785683334e-05, + 3.418210981181e-05, + 3.574146190658e-05, + 3.724527137820e-05, + 3.869343781844e-05,  \
+ 4.008556177723e-05, + 4.142175341258e-05, + 4.270199395251e-05, + 4.392647766508e-05, + 4.509566861088e-05,  \
+ 4.621009284165e-05, + 4.727051564259e-05, + 4.827770520933e-05, + 4.923280386720e-05, + 5.013691261411e-05,  \
+ 5.099141402752e-05, + 5.179791245610e-05, + 5.255786556518e-05, + 5.327339371433e-05, + 5.394613690441e-05,  \
+ 5.457830673549e-05, + 5.517212048289e-05, + 5.572974128881e-05, + 5.625358113321e-05, + 5.674599087797e-05,  \
+ 5.720922359615e-05, + 5.764589121100e-05, + 5.805838256492e-05, + 5.844894505572e-05, + 5.881993347430e-05,  \
+ 5.917352653341e-05, + 5.951177518000e-05, + 5.983684910461e-05, + 6.015026825480e-05, + 6.045391273801e-05,  \
+ 6.074909921153e-05, + 6.103727326263e-05, + 6.131933827419e-05, + 6.159633674542e-05, + 6.186882819748e-05,  \
+ 6.213738699444e-05, + 6.240232418349e-05, + 6.266374213737e-05, + 6.292164813203e-05, + 6.317578372546e-05,  \
+ 6.342572116409e-05, + 6.367137670168e-05, + 6.391195602191e-05, + 6.414688657969e-05, + 6.437556039600e-05,  \
+ 6.459739161073e-05, + 6.481160096882e-05, + 6.501761352411e-05, + 6.521471397718e-05, + 6.540229151142e-05,  \
+ 6.557977023476e-05, + 6.574682076462e-05, + 6.590290366148e-05, + 6.604759197216e-05, + 6.618088264077e-05,  \
+ 6.630221585510e-05, + 6.641182357271e-05, + 6.650944473222e-05, + 6.659518490778e-05, + 6.666907574981e-05 ]

* Data table for Id-Vd at Vg = 0.78V
.param vd_data_vg0.78=[ \
+ 0.010000, + 0.020000, + 0.030000, + 0.040000, + 0.050000, + 0.060000, + 0.070000, + 0.080000, + 0.090000, + 0.100000,  \
+ 0.110000, + 0.120000, + 0.130000, + 0.140000, + 0.150000, + 0.160000, + 0.170000, + 0.180000, + 0.190000, + 0.200000,  \
+ 0.210000, + 0.220000, + 0.230000, + 0.240000, + 0.250000, + 0.260000, + 0.270000, + 0.280000, + 0.290000, + 0.300000,  \
+ 0.310000, + 0.320000, + 0.330000, + 0.340000, + 0.350000, + 0.360000, + 0.370000, + 0.380000, + 0.390000, + 0.400000,  \
+ 0.410000, + 0.420000, + 0.430000, + 0.440000, + 0.450000, + 0.460000, + 0.470000, + 0.480000, + 0.490000, + 0.500000,  \
+ 0.510000, + 0.520000, + 0.530000, + 0.540000, + 0.550000, + 0.560000, + 0.570000, + 0.580000, + 0.590000, + 0.600000,  \
+ 0.610000, + 0.620000, + 0.630000, + 0.640000, + 0.650000, + 0.660000, + 0.670000, + 0.680000, + 0.690000, + 0.700000,  \
+ 0.710000, + 0.720000, + 0.730000, + 0.740000, + 0.750000, + 0.760000, + 0.770000, + 0.780000, + 0.790000, + 0.800000 ]

.param id_actual_data_vg0.78=[ \
+ 2.363600000000e-06, + 4.710600000000e-06, + 7.034800000000e-06, + 9.330200000000e-06, + 1.159120000000e-05,  \
+ 1.381250000000e-05, + 1.598980000000e-05, + 1.811880000000e-05, + 2.019630000000e-05, + 2.221950000000e-05,  \
+ 2.418600000000e-05, + 2.609400000000e-05, + 2.794220000000e-05, + 2.972950000000e-05, + 3.145540000000e-05,  \
+ 3.311950000000e-05, + 3.472200000000e-05, + 3.626310000000e-05, + 3.774330000000e-05, + 3.916350000000e-05,  \
+ 4.052460000000e-05, + 4.182800000000e-05, + 4.307490000000e-05, + 4.426700000000e-05, + 4.540590000000e-05,  \
+ 4.649330000000e-05, + 4.753110000000e-05, + 4.852110000000e-05, + 4.946530000000e-05, + 5.036540000000e-05,  \
+ 5.122340000000e-05, + 5.204110000000e-05, + 5.282010000000e-05, + 5.356220000000e-05, + 5.426900000000e-05,  \
+ 5.494210000000e-05, + 5.558290000000e-05, + 5.619300000000e-05, + 5.677370000000e-05, + 5.732650000000e-05,  \
+ 5.785250000000e-05, + 5.835320000000e-05, + 5.882980000000e-05, + 5.928360000000e-05, + 5.971560000000e-05,  \
+ 6.012710000000e-05, + 6.051920000000e-05, + 6.089290000000e-05, + 6.124940000000e-05, + 6.158950000000e-05,  \
+ 6.191420000000e-05, + 6.222450000000e-05, + 6.252130000000e-05, + 6.280520000000e-05, + 6.307710000000e-05,  \
+ 6.333780000000e-05, + 6.358780000000e-05, + 6.382790000000e-05, + 6.405860000000e-05, + 6.428060000000e-05,  \
+ 6.449430000000e-05, + 6.470030000000e-05, + 6.489890000000e-05, + 6.509070000000e-05, + 6.527610000000e-05,  \
+ 6.545540000000e-05, + 6.562890000000e-05, + 6.579700000000e-05, + 6.596010000000e-05, + 6.611830000000e-05,  \
+ 6.627200000000e-05, + 6.642140000000e-05, + 6.656670000000e-05, + 6.670820000000e-05, + 6.684610000000e-05,  \
+ 6.698050000000e-05, + 6.711160000000e-05, + 6.723960000000e-05, + 6.736470000000e-05, + 6.748690000000e-05 ]

.param id_pred_data_vg0.78=[ \
+ 2.364902320551e-06, + 4.693928058259e-06, + 6.985573272686e-06, + 9.238345082849e-06, + 1.145082278526e-05,  \
+ 1.362157665426e-05, + 1.574921741849e-05, + 1.783241750672e-05, + 1.986990260775e-05, + 2.186044730479e-05,  \
+ 2.380283825914e-05, + 2.569604956079e-05, + 2.753892767942e-05, + 2.933063689852e-05, + 3.107019801973e-05,  \
+ 3.275693161413e-05, + 3.439000269282e-05, + 3.596892056521e-05, + 3.749313313165e-05, + 3.896234265994e-05,  \
+ 4.037626975332e-05, + 4.173488443485e-05, + 4.303806024836e-05, + 4.428602987900e-05, + 4.547914431896e-05,  \
+ 4.661776096327e-05, + 4.770268395077e-05, + 4.873446479905e-05, + 4.971414760803e-05, + 5.064288707217e-05,  \
+ 5.152187804924e-05, + 5.235249176621e-05, + 5.313629197190e-05, + 5.387510231230e-05, + 5.457064107759e-05,  \
+ 5.522497580387e-05, + 5.584015001659e-05, + 5.641823663609e-05, + 5.696164196706e-05, + 5.747263785452e-05,  \
+ 5.795363103971e-05, + 5.840689031174e-05, + 5.883481630008e-05, + 5.923997785430e-05, + 5.962445866317e-05,  \
+ 5.999049462844e-05, + 6.034021120286e-05, + 6.067576585338e-05, + 6.099892591010e-05, + 6.131154077593e-05,  \
+ 6.161496661662e-05, + 6.191073160153e-05, + 6.220009207027e-05, + 6.248381134355e-05, + 6.276292115217e-05,  \
+ 6.303782691248e-05, + 6.330889817036e-05, + 6.357654012390e-05, + 6.384064108715e-05, + 6.410123314708e-05,  \
+ 6.435784234782e-05, + 6.461024808232e-05, + 6.485790290753e-05, + 6.510028615594e-05, + 6.533659252455e-05,  \
+ 6.556642823853e-05, + 6.578886561329e-05, + 6.600326974876e-05, + 6.620898122492e-05, + 6.640543215326e-05,  \
+ 6.659185855824e-05, + 6.676791992504e-05, + 6.693300078041e-05, + 6.708679269650e-05, + 6.722878970322e-05,  \
+ 6.735891365679e-05, + 6.747696286766e-05, + 6.758298011846e-05, + 6.767668382963e-05, + 6.775830406696e-05 ]

* Data table for Id-Vd at Vg = 0.79V
.param vd_data_vg0.79=[ \
+ 0.010000, + 0.020000, + 0.030000, + 0.040000, + 0.050000, + 0.060000, + 0.070000, + 0.080000, + 0.090000, + 0.100000,  \
+ 0.110000, + 0.120000, + 0.130000, + 0.140000, + 0.150000, + 0.160000, + 0.170000, + 0.180000, + 0.190000, + 0.200000,  \
+ 0.210000, + 0.220000, + 0.230000, + 0.240000, + 0.250000, + 0.260000, + 0.270000, + 0.280000, + 0.290000, + 0.300000,  \
+ 0.310000, + 0.320000, + 0.330000, + 0.340000, + 0.350000, + 0.360000, + 0.370000, + 0.380000, + 0.390000, + 0.400000,  \
+ 0.410000, + 0.420000, + 0.430000, + 0.440000, + 0.450000, + 0.460000, + 0.470000, + 0.480000, + 0.490000, + 0.500000,  \
+ 0.510000, + 0.520000, + 0.530000, + 0.540000, + 0.550000, + 0.560000, + 0.570000, + 0.580000, + 0.590000, + 0.600000,  \
+ 0.610000, + 0.620000, + 0.630000, + 0.640000, + 0.650000, + 0.660000, + 0.670000, + 0.680000, + 0.690000, + 0.700000,  \
+ 0.710000, + 0.720000, + 0.730000, + 0.740000, + 0.750000, + 0.760000, + 0.770000, + 0.780000, + 0.790000, + 0.800000 ]

.param id_actual_data_vg0.79=[ \
+ 2.373800000000e-06, + 4.731500000000e-06, + 7.066900000000e-06, + 9.373900000000e-06, + 1.164710000000e-05,  \
+ 1.388130000000e-05, + 1.607200000000e-05, + 1.821510000000e-05, + 2.030720000000e-05, + 2.234560000000e-05,  \
+ 2.432780000000e-05, + 2.625210000000e-05, + 2.811700000000e-05, + 2.992160000000e-05, + 3.166510000000e-05,  \
+ 3.334730000000e-05, + 3.496810000000e-05, + 3.652780000000e-05, + 3.802700000000e-05, + 3.946620000000e-05,  \
+ 4.084660000000e-05, + 4.216930000000e-05, + 4.343560000000e-05, + 4.464700000000e-05, + 4.580510000000e-05,  \
+ 4.691150000000e-05, + 4.796820000000e-05, + 4.897690000000e-05, + 4.993950000000e-05, + 5.085790000000e-05,  \
+ 5.173380000000e-05, + 5.256910000000e-05, + 5.336550000000e-05, + 5.412470000000e-05, + 5.484830000000e-05,  \
+ 5.553800000000e-05, + 5.619510000000e-05, + 5.682130000000e-05, + 5.741770000000e-05, + 5.798600000000e-05,  \
+ 5.852720000000e-05, + 5.904280000000e-05, + 5.953390000000e-05, + 6.000180000000e-05, + 6.044760000000e-05,  \
+ 6.087250000000e-05, + 6.127760000000e-05, + 6.166400000000e-05, + 6.203260000000e-05, + 6.238450000000e-05,  \
+ 6.272060000000e-05, + 6.304180000000e-05, + 6.334900000000e-05, + 6.364300000000e-05, + 6.392470000000e-05,  \
+ 6.419460000000e-05, + 6.445350000000e-05, + 6.470220000000e-05, + 6.494110000000e-05, + 6.517090000000e-05,  \
+ 6.539210000000e-05, + 6.560520000000e-05, + 6.581080000000e-05, + 6.600910000000e-05, + 6.620080000000e-05,  \
+ 6.638610000000e-05, + 6.656540000000e-05, + 6.673910000000e-05, + 6.690740000000e-05, + 6.707070000000e-05,  \
+ 6.722930000000e-05, + 6.738340000000e-05, + 6.753320000000e-05, + 6.767900000000e-05, + 6.782100000000e-05,  \
+ 6.795940000000e-05, + 6.809430000000e-05, + 6.822600000000e-05, + 6.835460000000e-05, + 6.848020000000e-05 ]

.param id_pred_data_vg0.79=[ \
+ 2.370651345700e-06, + 4.705985193141e-06, + 7.004532089923e-06, + 9.264849359170e-06, + 1.148552546510e-05,  \
+ 1.366520446027e-05, + 1.580249198014e-05, + 1.789610134438e-05, + 1.994479884161e-05, + 2.194732514909e-05,  \
+ 2.390261055552e-05, + 2.580946544185e-05, + 2.766694233287e-05, + 2.947400556877e-05, + 3.122981215711e-05,  \
+ 3.293356625363e-05, + 3.458457649685e-05, + 3.618215880124e-05, + 3.772591255256e-05, + 3.921538300347e-05,  \
+ 4.065020082635e-05, + 4.203033720842e-05, + 4.335571837146e-05, + 4.462634562515e-05, + 4.584261841956e-05,  \
+ 4.700481280452e-05, + 4.811346661882e-05, + 4.916927486192e-05, + 5.017310395488e-05, + 5.112592043588e-05,  \
+ 5.202902422752e-05, + 5.288349930197e-05, + 5.369086138671e-05, + 5.445280490676e-05, + 5.517100362340e-05,  \
+ 5.584729020484e-05, + 5.648377293255e-05, + 5.708257260267e-05, + 5.764562272816e-05, + 5.817556520924e-05,  \
+ 5.867430460057e-05, + 5.914442619542e-05, + 5.958826688584e-05, + 6.000806286465e-05, + 6.040622174623e-05,  \
+ 6.078505830374e-05, + 6.114646021160e-05, + 6.149288965389e-05, + 6.182594268466e-05, + 6.214765744517e-05,  \
+ 6.245951211895e-05, + 6.276309693931e-05, + 6.305957089353e-05, + 6.335011246847e-05, + 6.363558059093e-05,  \
+ 6.391668401193e-05, + 6.419386059861e-05, + 6.446751620388e-05, + 6.473772780737e-05, + 6.500440067612e-05,  \
+ 6.526742567075e-05, + 6.552633392857e-05, + 6.578088927199e-05, + 6.603030953556e-05, + 6.627410075453e-05,  \
+ 6.651154544670e-05, + 6.674202879367e-05, + 6.696477648802e-05, + 6.717905511323e-05, + 6.738410520484e-05,  \
+ 6.757959985407e-05, + 6.776460155379e-05, + 6.793875552830e-05, + 6.810154911363e-05, + 6.825258788012e-05,  \
+ 6.839167326689e-05, + 6.851845966594e-05, + 6.863298593089e-05, + 6.873496655317e-05, + 6.882474990562e-05 ]

* Data table for Id-Vd at Vg = 0.80V
.param vd_data_vg0.80=[ \
+ 0.010000, + 0.020000, + 0.030000, + 0.040000, + 0.050000, + 0.060000, + 0.070000, + 0.080000, + 0.090000, + 0.100000,  \
+ 0.110000, + 0.120000, + 0.130000, + 0.140000, + 0.150000, + 0.160000, + 0.170000, + 0.180000, + 0.190000, + 0.200000,  \
+ 0.210000, + 0.220000, + 0.230000, + 0.240000, + 0.250000, + 0.260000, + 0.270000, + 0.280000, + 0.290000, + 0.300000,  \
+ 0.310000, + 0.320000, + 0.330000, + 0.340000, + 0.350000, + 0.360000, + 0.370000, + 0.380000, + 0.390000, + 0.400000,  \
+ 0.410000, + 0.420000, + 0.430000, + 0.440000, + 0.450000, + 0.460000, + 0.470000, + 0.480000, + 0.490000, + 0.500000,  \
+ 0.510000, + 0.520000, + 0.530000, + 0.540000, + 0.550000, + 0.560000, + 0.570000, + 0.580000, + 0.590000, + 0.600000,  \
+ 0.610000, + 0.620000, + 0.630000, + 0.640000, + 0.650000, + 0.660000, + 0.670000, + 0.680000, + 0.690000, + 0.700000,  \
+ 0.710000, + 0.720000, + 0.730000, + 0.740000, + 0.750000, + 0.760000, + 0.770000, + 0.780000, + 0.790000, + 0.800000 ]

.param id_actual_data_vg0.80=[ \
+ 2.383700000000e-06, + 4.751600000000e-06, + 7.097700000000e-06, + 9.416100000000e-06, + 1.170100000000e-05,  \
+ 1.394760000000e-05, + 1.615110000000e-05, + 1.830770000000e-05, + 2.041390000000e-05, + 2.246680000000e-05,  \
+ 2.446420000000e-05, + 2.640400000000e-05, + 2.828500000000e-05, + 3.010610000000e-05, + 3.186650000000e-05,  \
+ 3.356600000000e-05, + 3.520440000000e-05, + 3.678200000000e-05, + 3.829920000000e-05, + 3.975680000000e-05,  \
+ 4.115560000000e-05, + 4.249680000000e-05, + 4.378160000000e-05, + 4.501150000000e-05, + 4.618800000000e-05,  \
+ 4.731280000000e-05, + 4.838770000000e-05, + 4.941430000000e-05, + 5.039460000000e-05, + 5.133050000000e-05,  \
+ 5.222360000000e-05, + 5.307580000000e-05, + 5.388890000000e-05, + 5.466460000000e-05, + 5.540440000000e-05,  \
+ 5.611000000000e-05, + 5.678280000000e-05, + 5.742430000000e-05, + 5.803600000000e-05, + 5.861910000000e-05,  \
+ 5.917500000000e-05, + 5.970500000000e-05, + 6.021020000000e-05, + 6.069180000000e-05, + 6.115100000000e-05,  \
+ 6.158900000000e-05, + 6.200680000000e-05, + 6.240550000000e-05, + 6.278610000000e-05, + 6.314960000000e-05,  \
+ 6.349690000000e-05, + 6.382890000000e-05, + 6.414650000000e-05, + 6.445060000000e-05, + 6.474180000000e-05,  \
+ 6.502100000000e-05, + 6.528880000000e-05, + 6.554600000000e-05, + 6.579300000000e-05, + 6.603070000000e-05,  \
+ 6.625940000000e-05, + 6.647970000000e-05, + 6.669210000000e-05, + 6.689710000000e-05, + 6.709510000000e-05,  \
+ 6.728650000000e-05, + 6.747160000000e-05, + 6.765080000000e-05, + 6.782450000000e-05, + 6.799290000000e-05,  \
+ 6.815640000000e-05, + 6.831520000000e-05, + 6.846960000000e-05, + 6.861970000000e-05, + 6.876590000000e-05,  \
+ 6.890830000000e-05, + 6.904710000000e-05, + 6.918250000000e-05, + 6.931460000000e-05, + 6.944370000000e-05 ]

.param id_pred_data_vg0.80=[ \
+ 2.375804906478e-06, + 4.716831608675e-06, + 7.021653873380e-06, + 9.288860601373e-06, + 1.151707037934e-05,  \
+ 1.370497047901e-05, + 1.585118370713e-05, + 1.795449759811e-05, + 2.001362081501e-05, + 2.202742616646e-05,  \
+ 2.399474426056e-05, + 2.591446100269e-05, + 2.778564012260e-05, + 2.960725920275e-05, + 3.137842504657e-05,  \
+ 3.309839870781e-05, + 3.476648926153e-05, + 3.638191003120e-05, + 3.794424555963e-05, + 3.945305943489e-05,  \
+ 4.090799979167e-05, + 4.230891208863e-05, + 4.365565109765e-05, + 4.494822816923e-05, + 4.618688035407e-05,  \
+ 4.737184615806e-05, + 4.850363766309e-05, + 4.958294623066e-05, + 5.061037765699e-05, + 5.158684652997e-05,  \
+ 5.251346156001e-05, + 5.339147057384e-05, + 5.422209724202e-05, + 5.500689730980e-05, + 5.574755050475e-05,  \
+ 5.644592049066e-05, + 5.710366225685e-05, + 5.772306438303e-05, + 5.830600013724e-05, + 5.885475547984e-05,  \
+ 5.937148293015e-05, + 5.985878000502e-05, + 6.031862169039e-05, + 6.075341138057e-05, + 6.116562217358e-05,  \
+ 6.155743845738e-05, + 6.193098728545e-05, + 6.228840211406e-05, + 6.263167510042e-05, + 6.296249921434e-05,  \
+ 6.328296949505e-05, + 6.359438062645e-05, + 6.389825677616e-05, + 6.419553872547e-05, + 6.448752283177e-05,  \
+ 6.477467541117e-05, + 6.505780453153e-05, + 6.533726540511e-05, + 6.561324742506e-05, + 6.588591495529e-05,  \
+ 6.615490165132e-05, + 6.642012143857e-05, + 6.668107096630e-05, + 6.693741772324e-05, + 6.718833574269e-05,  \
+ 6.743317542714e-05, + 6.767149512598e-05, + 6.790226732846e-05, + 6.812487539719e-05, + 6.833874358563e-05,  \
+ 6.854281848064e-05, + 6.873688660562e-05, + 6.892017321661e-05, + 6.909197429195e-05, + 6.925234265509e-05,  \
+ 6.940035091247e-05, + 6.953610107303e-05, + 6.965943946852e-05, + 6.976999284234e-05, + 6.986798834987e-05 ]

* Behavioral voltage sources for Id-Vg plots
EVG_VD0.01 vg_vd0.01 0 VOL='vg_data_vd0.01[min(floor(time*80),79)]'
EID_ACT_VD0.01 id_act_vd0.01 0 VOL='id_actual_data_vd0.01[min(floor(time*80),79)]'
EID_PRED_VD0.01 id_pred_vd0.01 0 VOL='id_pred_data_vd0.01[min(floor(time*80),79)]'

EVG_VD0.20 vg_vd0.20 0 VOL='vg_data_vd0.20[min(floor(time*80),79)]'
EID_ACT_VD0.20 id_act_vd0.20 0 VOL='id_actual_data_vd0.20[min(floor(time*80),79)]'
EID_PRED_VD0.20 id_pred_vd0.20 0 VOL='id_pred_data_vd0.20[min(floor(time*80),79)]'

EVG_VD0.40 vg_vd0.40 0 VOL='vg_data_vd0.40[min(floor(time*80),79)]'
EID_ACT_VD0.40 id_act_vd0.40 0 VOL='id_actual_data_vd0.40[min(floor(time*80),79)]'
EID_PRED_VD0.40 id_pred_vd0.40 0 VOL='id_pred_data_vd0.40[min(floor(time*80),79)]'

EVG_VD0.60 vg_vd0.60 0 VOL='vg_data_vd0.60[min(floor(time*80),79)]'
EID_ACT_VD0.60 id_act_vd0.60 0 VOL='id_actual_data_vd0.60[min(floor(time*80),79)]'
EID_PRED_VD0.60 id_pred_vd0.60 0 VOL='id_pred_data_vd0.60[min(floor(time*80),79)]'

EVG_VD0.80 vg_vd0.80 0 VOL='vg_data_vd0.80[min(floor(time*80),79)]'
EID_ACT_VD0.80 id_act_vd0.80 0 VOL='id_actual_data_vd0.80[min(floor(time*80),79)]'
EID_PRED_VD0.80 id_pred_vd0.80 0 VOL='id_pred_data_vd0.80[min(floor(time*80),79)]'

* Behavioral voltage sources for Id-Vd plots
EVD_VG0.01 vd_vg0.01 0 VOL='vd_data_vg0.01[min(floor(time*80),79)]'
EID_ACT_VG0.01 id_act_vg0.01 0 VOL='id_actual_data_vg0.01[min(floor(time*80),79)]'
EID_PRED_VG0.01 id_pred_vg0.01 0 VOL='id_pred_data_vg0.01[min(floor(time*80),79)]'

EVD_VG0.20 vd_vg0.20 0 VOL='vd_data_vg0.20[min(floor(time*80),79)]'
EID_ACT_VG0.20 id_act_vg0.20 0 VOL='id_actual_data_vg0.20[min(floor(time*80),79)]'
EID_PRED_VG0.20 id_pred_vg0.20 0 VOL='id_pred_data_vg0.20[min(floor(time*80),79)]'

EVD_VG0.40 vd_vg0.40 0 VOL='vd_data_vg0.40[min(floor(time*80),79)]'
EID_ACT_VG0.40 id_act_vg0.40 0 VOL='id_actual_data_vg0.40[min(floor(time*80),79)]'
EID_PRED_VG0.40 id_pred_vg0.40 0 VOL='id_pred_data_vg0.40[min(floor(time*80),79)]'

EVD_VG0.60 vd_vg0.60 0 VOL='vd_data_vg0.60[min(floor(time*80),79)]'
EID_ACT_VG0.60 id_act_vg0.60 0 VOL='id_actual_data_vg0.60[min(floor(time*80),79)]'
EID_PRED_VG0.60 id_pred_vg0.60 0 VOL='id_pred_data_vg0.60[min(floor(time*80),79)]'

EVD_VG0.80 vd_vg0.80 0 VOL='vd_data_vg0.80[min(floor(time*80),79)]'
EID_ACT_VG0.80 id_act_vg0.80 0 VOL='id_actual_data_vg0.80[min(floor(time*80),79)]'
EID_PRED_VG0.80 id_pred_vg0.80 0 VOL='id_pred_data_vg0.80[min(floor(time*80),79)]'

* Run a transient analysis to plot the data
.tran 0.01 1.0

* Plotting hints for WaveView:
* For Id-Vg plots:
*   For Vd=0.01V: Plot V(id_act_vd0.01) vs V(vg_vd0.01) and V(id_pred_vd0.01) vs V(vg_vd0.01)
*   For Vd=0.20V: Plot V(id_act_vd0.20) vs V(vg_vd0.20) and V(id_pred_vd0.20) vs V(vg_vd0.20)
*   For Vd=0.40V: Plot V(id_act_vd0.40) vs V(vg_vd0.40) and V(id_pred_vd0.40) vs V(vg_vd0.40)
*   For Vd=0.60V: Plot V(id_act_vd0.60) vs V(vg_vd0.60) and V(id_pred_vd0.60) vs V(vg_vd0.60)
*   For Vd=0.80V: Plot V(id_act_vd0.80) vs V(vg_vd0.80) and V(id_pred_vd0.80) vs V(vg_vd0.80)
* For Id-Vd plots:
*   For Vg=0.01V: Plot V(id_act_vg0.01) vs V(vd_vg0.01) and V(id_pred_vg0.01) vs V(vd_vg0.01)
*   For Vg=0.20V: Plot V(id_act_vg0.20) vs V(vd_vg0.20) and V(id_pred_vg0.20) vs V(vd_vg0.20)
*   For Vg=0.40V: Plot V(id_act_vg0.40) vs V(vd_vg0.40) and V(id_pred_vg0.40) vs V(vd_vg0.40)
*   For Vg=0.60V: Plot V(id_act_vg0.60) vs V(vd_vg0.60) and V(id_pred_vg0.60) vs V(vd_vg0.60)
*   For Vg=0.80V: Plot V(id_act_vg0.80) vs V(vd_vg0.80) and V(id_pred_vg0.80) vs V(vd_vg0.80)

.end
