* HSPICE Data File for Plotting Id-Vg and Id-Vd Curves in WaveView
.option post=2 ingold=2 numdgt=10

* Id-Vg curve for Vd = 0.01
VG_VD0.01 vg 0 PWL(
+ 0.000000000 0.010000
+ 0.000000001 0.020000
+ 0.000000002 0.030000
+ 0.000000003 0.040000
+ 0.000000004 0.050000
+ 0.000000005 0.060000
+ 0.000000006 0.070000
+ 0.000000007 0.080000
+ 0.000000008 0.090000
+ 0.000000009 0.100000
+ 0.000000010 0.110000
+ 0.000000011 0.120000
+ 0.000000012 0.130000
+ 0.000000013 0.140000
+ 0.000000014 0.150000
+ 0.000000015 0.160000
+ 0.000000016 0.170000
+ 0.000000017 0.180000
+ 0.000000018 0.190000
+ 0.000000019 0.200000
+ 0.000000020 0.210000
+ 0.000000021 0.220000
+ 0.000000022 0.230000
+ 0.000000023 0.240000
+ 0.000000024 0.250000
+ 0.000000025 0.260000
+ 0.000000026 0.270000
+ 0.000000027 0.280000
+ 0.000000028 0.290000
+ 0.000000029 0.300000
+ 0.000000030 0.310000
+ 0.000000031 0.320000
+ 0.000000032 0.330000
+ 0.000000033 0.340000
+ 0.000000034 0.350000
+ 0.000000035 0.360000
+ 0.000000036 0.370000
+ 0.000000037 0.380000
+ 0.000000038 0.390000
+ 0.000000039 0.400000
+ 0.000000040 0.410000
+ 0.000000041 0.420000
+ 0.000000042 0.430000
+ 0.000000043 0.440000
+ 0.000000044 0.450000
+ 0.000000045 0.460000
+ 0.000000046 0.470000
+ 0.000000047 0.480000
+ 0.000000048 0.490000
+ 0.000000049 0.500000
+ 0.000000050 0.510000
+ 0.000000051 0.520000
+ 0.000000052 0.530000
+ 0.000000053 0.540000
+ 0.000000054 0.550000
+ 0.000000055 0.560000
+ 0.000000056 0.570000
+ 0.000000057 0.580000
+ 0.000000058 0.590000
+ 0.000000059 0.600000
+ 0.000000060 0.610000
+ 0.000000061 0.620000
+ 0.000000062 0.630000
+ 0.000000063 0.640000
+ 0.000000064 0.650000
+ 0.000000065 0.660000
+ 0.000000066 0.670000
+ 0.000000067 0.680000
+ 0.000000068 0.690000
+ 0.000000069 0.700000
+ 0.000000070 0.710000
+ 0.000000071 0.720000
+ 0.000000072 0.730000
+ 0.000000073 0.740000
+ 0.000000074 0.750000
+ 0.000000075 0.760000
+ 0.000000076 0.770000
+ 0.000000077 0.780000
+ 0.000000078 0.790000
+ 0.000000079 0.800000
)

I_ACTUAL_VD0.01 0 id_actual_vd0.01 PWL(
+ 0.000000000 8.817320000000e-11
+ 0.000000001 1.286390000000e-10
+ 0.000000002 1.876680000000e-10
+ 0.000000003 2.737690000000e-10
+ 0.000000004 3.993390000000e-10
+ 0.000000005 5.824360000000e-10
+ 0.000000006 8.493340000000e-10
+ 0.000000007 1.238200000000e-09
+ 0.000000008 1.804500000000e-09
+ 0.000000009 2.628400000000e-09
+ 0.000000010 3.825400000000e-09
+ 0.000000011 5.561200000000e-09
+ 0.000000012 8.071600000000e-09
+ 0.000000013 1.168790000000e-08
+ 0.000000014 1.686830000000e-08
+ 0.000000015 2.423110000000e-08
+ 0.000000016 3.458240000000e-08
+ 0.000000017 4.892220000000e-08
+ 0.000000018 6.840530000000e-08
+ 0.000000019 9.423290000000e-08
+ 0.000000020 1.274660000000e-07
+ 0.000000021 1.687960000000e-07
+ 0.000000022 2.183400000000e-07
+ 0.000000023 2.755740000000e-07
+ 0.000000024 3.394150000000e-07
+ 0.000000025 4.084390000000e-07
+ 0.000000026 4.811210000000e-07
+ 0.000000027 5.560310000000e-07
+ 0.000000028 6.319470000000e-07
+ 0.000000029 7.078840000000e-07
+ 0.000000030 7.830880000000e-07
+ 0.000000031 8.570000000000e-07
+ 0.000000032 9.292130000000e-07
+ 0.000000033 9.994420000000e-07
+ 0.000000034 1.067500000000e-06
+ 0.000000035 1.133200000000e-06
+ 0.000000036 1.196600000000e-06
+ 0.000000037 1.257500000000e-06
+ 0.000000038 1.316000000000e-06
+ 0.000000039 1.372100000000e-06
+ 0.000000040 1.425800000000e-06
+ 0.000000041 1.477200000000e-06
+ 0.000000042 1.526300000000e-06
+ 0.000000043 1.573200000000e-06
+ 0.000000044 1.618000000000e-06
+ 0.000000045 1.660700000000e-06
+ 0.000000046 1.701500000000e-06
+ 0.000000047 1.740400000000e-06
+ 0.000000048 1.777500000000e-06
+ 0.000000049 1.812900000000e-06
+ 0.000000050 1.846600000000e-06
+ 0.000000051 1.878800000000e-06
+ 0.000000052 1.909500000000e-06
+ 0.000000053 1.938900000000e-06
+ 0.000000054 1.966800000000e-06
+ 0.000000055 1.993600000000e-06
+ 0.000000056 2.019100000000e-06
+ 0.000000057 2.043500000000e-06
+ 0.000000058 2.066800000000e-06
+ 0.000000059 2.089000000000e-06
+ 0.000000060 2.110400000000e-06
+ 0.000000061 2.130700000000e-06
+ 0.000000062 2.150300000000e-06
+ 0.000000063 2.168900000000e-06
+ 0.000000064 2.186800000000e-06
+ 0.000000065 2.204000000000e-06
+ 0.000000066 2.220400000000e-06
+ 0.000000067 2.236200000000e-06
+ 0.000000068 2.251400000000e-06
+ 0.000000069 2.265900000000e-06
+ 0.000000070 2.279900000000e-06
+ 0.000000071 2.293300000000e-06
+ 0.000000072 2.306100000000e-06
+ 0.000000073 2.318500000000e-06
+ 0.000000074 2.330500000000e-06
+ 0.000000075 2.341900000000e-06
+ 0.000000076 2.353000000000e-06
+ 0.000000077 2.363600000000e-06
+ 0.000000078 2.373800000000e-06
+ 0.000000079 2.383700000000e-06
)

I_PRED_VD0.01 0 id_pred_vd0.01 PWL(
+ 0.000000000 8.691662500837e-11
+ 0.000000001 1.277592787119e-10
+ 0.000000002 1.880239075547e-10
+ 0.000000003 2.764217832407e-10
+ 0.000000004 4.053875102272e-10
+ 0.000000005 5.927359936209e-10
+ 0.000000006 8.640822102279e-10
+ 0.000000007 1.256348838297e-09
+ 0.000000008 1.822785691274e-09
+ 0.000000009 2.640145453370e-09
+ 0.000000010 3.818819322987e-09
+ 0.000000011 5.517154022527e-09
+ 0.000000012 7.961099299791e-09
+ 0.000000013 1.146998670265e-08
+ 0.000000014 1.648744500926e-08
+ 0.000000015 2.361348151680e-08
+ 0.000000016 3.362896677572e-08
+ 0.000000017 4.749799700221e-08
+ 0.000000018 6.633278644586e-08
+ 0.000000019 9.130706530414e-08
+ 0.000000020 1.235211311723e-07
+ 0.000000021 1.638347202970e-07
+ 0.000000022 2.127103289240e-07
+ 0.000000023 2.701012999751e-07
+ 0.000000024 3.354234286235e-07
+ 0.000000025 4.076106051798e-07
+ 0.000000026 4.852415804635e-07
+ 0.000000027 5.667030200129e-07
+ 0.000000028 6.503488111775e-07
+ 0.000000029 7.346443453571e-07
+ 0.000000030 8.182539022528e-07
+ 0.000000031 9.000972931972e-07
+ 0.000000032 9.793627395993e-07
+ 0.000000033 1.055493412423e-06
+ 0.000000034 1.128153744503e-06
+ 0.000000035 1.197192468680e-06
+ 0.000000036 1.262591831619e-06
+ 0.000000037 1.324447366642e-06
+ 0.000000038 1.382917980663e-06
+ 0.000000039 1.438197796233e-06
+ 0.000000040 1.490507129347e-06
+ 0.000000041 1.540072262287e-06
+ 0.000000042 1.587107253727e-06
+ 0.000000043 1.631817576708e-06
+ 0.000000044 1.674392406130e-06
+ 0.000000045 1.714990648907e-06
+ 0.000000046 1.753766118782e-06
+ 0.000000047 1.790846145013e-06
+ 0.000000048 1.826332882047e-06
+ 0.000000049 1.860323245637e-06
+ 0.000000050 1.892898144433e-06
+ 0.000000051 1.924123062054e-06
+ 0.000000052 1.954048930202e-06
+ 0.000000053 1.982726535061e-06
+ 0.000000054 2.010194730246e-06
+ 0.000000055 2.036487130681e-06
+ 0.000000056 2.061634586425e-06
+ 0.000000057 2.085659943987e-06
+ 0.000000058 2.108589542331e-06
+ 0.000000059 2.130443899659e-06
+ 0.000000060 2.151242224500e-06
+ 0.000000061 2.171011292376e-06
+ 0.000000062 2.189765073126e-06
+ 0.000000063 2.207524812547e-06
+ 0.000000064 2.224314666819e-06
+ 0.000000065 2.240150934085e-06
+ 0.000000066 2.255063009216e-06
+ 0.000000067 2.269070246257e-06
+ 0.000000068 2.282193454448e-06
+ 0.000000069 2.294464648003e-06
+ 0.000000070 2.305899979547e-06
+ 0.000000071 2.316530444659e-06
+ 0.000000072 2.326384565094e-06
+ 0.000000073 2.335485332878e-06
+ 0.000000074 2.343859378016e-06
+ 0.000000075 2.351536677452e-06
+ 0.000000076 2.358541823924e-06
+ 0.000000077 2.364902320551e-06
+ 0.000000078 2.370651345700e-06
+ 0.000000079 2.375804906478e-06
)

* Id-Vg curve for Vd = 0.02
VG_VD0.02 vg 0 PWL(
+ 0.000000000 0.010000
+ 0.000000001 0.020000
+ 0.000000002 0.030000
+ 0.000000003 0.040000
+ 0.000000004 0.050000
+ 0.000000005 0.060000
+ 0.000000006 0.070000
+ 0.000000007 0.080000
+ 0.000000008 0.090000
+ 0.000000009 0.100000
+ 0.000000010 0.110000
+ 0.000000011 0.120000
+ 0.000000012 0.130000
+ 0.000000013 0.140000
+ 0.000000014 0.150000
+ 0.000000015 0.160000
+ 0.000000016 0.170000
+ 0.000000017 0.180000
+ 0.000000018 0.190000
+ 0.000000019 0.200000
+ 0.000000020 0.210000
+ 0.000000021 0.220000
+ 0.000000022 0.230000
+ 0.000000023 0.240000
+ 0.000000024 0.250000
+ 0.000000025 0.260000
+ 0.000000026 0.270000
+ 0.000000027 0.280000
+ 0.000000028 0.290000
+ 0.000000029 0.300000
+ 0.000000030 0.310000
+ 0.000000031 0.320000
+ 0.000000032 0.330000
+ 0.000000033 0.340000
+ 0.000000034 0.350000
+ 0.000000035 0.360000
+ 0.000000036 0.370000
+ 0.000000037 0.380000
+ 0.000000038 0.390000
+ 0.000000039 0.400000
+ 0.000000040 0.410000
+ 0.000000041 0.420000
+ 0.000000042 0.430000
+ 0.000000043 0.440000
+ 0.000000044 0.450000
+ 0.000000045 0.460000
+ 0.000000046 0.470000
+ 0.000000047 0.480000
+ 0.000000048 0.490000
+ 0.000000049 0.500000
+ 0.000000050 0.510000
+ 0.000000051 0.520000
+ 0.000000052 0.530000
+ 0.000000053 0.540000
+ 0.000000054 0.550000
+ 0.000000055 0.560000
+ 0.000000056 0.570000
+ 0.000000057 0.580000
+ 0.000000058 0.590000
+ 0.000000059 0.600000
+ 0.000000060 0.610000
+ 0.000000061 0.620000
+ 0.000000062 0.630000
+ 0.000000063 0.640000
+ 0.000000064 0.650000
+ 0.000000065 0.660000
+ 0.000000066 0.670000
+ 0.000000067 0.680000
+ 0.000000068 0.690000
+ 0.000000069 0.700000
+ 0.000000070 0.710000
+ 0.000000071 0.720000
+ 0.000000072 0.730000
+ 0.000000073 0.740000
+ 0.000000074 0.750000
+ 0.000000075 0.760000
+ 0.000000076 0.770000
+ 0.000000077 0.780000
+ 0.000000078 0.790000
+ 0.000000079 0.800000
)

I_ACTUAL_VD0.02 0 id_actual_vd0.02 PWL(
+ 0.000000000 1.486460000000e-10
+ 0.000000001 2.168620000000e-10
+ 0.000000002 3.163730000000e-10
+ 0.000000003 4.615240000000e-10
+ 0.000000004 6.732230000000e-10
+ 0.000000005 9.819230000000e-10
+ 0.000000006 1.432000000000e-09
+ 0.000000007 2.087800000000e-09
+ 0.000000008 3.043000000000e-09
+ 0.000000009 4.433200000000e-09
+ 0.000000010 6.454000000000e-09
+ 0.000000011 9.386900000000e-09
+ 0.000000012 1.363300000000e-08
+ 0.000000013 1.975940000000e-08
+ 0.000000014 2.855550000000e-08
+ 0.000000015 4.109760000000e-08
+ 0.000000016 5.881010000000e-08
+ 0.000000017 8.349890000000e-08
+ 0.000000018 1.173190000000e-07
+ 0.000000019 1.626270000000e-07
+ 0.000000020 2.216860000000e-07
+ 0.000000021 2.962440000000e-07
+ 0.000000022 3.871040000000e-07
+ 0.000000023 4.938470000000e-07
+ 0.000000024 6.148470000000e-07
+ 0.000000025 7.475790000000e-07
+ 0.000000026 8.890820000000e-07
+ 0.000000027 1.036400000000e-06
+ 0.000000028 1.186900000000e-06
+ 0.000000029 1.338300000000e-06
+ 0.000000030 1.489100000000e-06
+ 0.000000031 1.637700000000e-06
+ 0.000000032 1.783400000000e-06
+ 0.000000033 1.925400000000e-06
+ 0.000000034 2.063200000000e-06
+ 0.000000035 2.196600000000e-06
+ 0.000000036 2.325300000000e-06
+ 0.000000037 2.449200000000e-06
+ 0.000000038 2.568300000000e-06
+ 0.000000039 2.682600000000e-06
+ 0.000000040 2.792100000000e-06
+ 0.000000041 2.896900000000e-06
+ 0.000000042 2.997200000000e-06
+ 0.000000043 3.093000000000e-06
+ 0.000000044 3.184600000000e-06
+ 0.000000045 3.272000000000e-06
+ 0.000000046 3.355400000000e-06
+ 0.000000047 3.435000000000e-06
+ 0.000000048 3.510900000000e-06
+ 0.000000049 3.583400000000e-06
+ 0.000000050 3.652500000000e-06
+ 0.000000051 3.718400000000e-06
+ 0.000000052 3.781300000000e-06
+ 0.000000053 3.841400000000e-06
+ 0.000000054 3.898700000000e-06
+ 0.000000055 3.953400000000e-06
+ 0.000000056 4.005700000000e-06
+ 0.000000057 4.055600000000e-06
+ 0.000000058 4.103400000000e-06
+ 0.000000059 4.149000000000e-06
+ 0.000000060 4.192600000000e-06
+ 0.000000061 4.234400000000e-06
+ 0.000000062 4.274300000000e-06
+ 0.000000063 4.312600000000e-06
+ 0.000000064 4.349200000000e-06
+ 0.000000065 4.384300000000e-06
+ 0.000000066 4.418000000000e-06
+ 0.000000067 4.450300000000e-06
+ 0.000000068 4.481200000000e-06
+ 0.000000069 4.511000000000e-06
+ 0.000000070 4.539500000000e-06
+ 0.000000071 4.566900000000e-06
+ 0.000000072 4.593300000000e-06
+ 0.000000073 4.618600000000e-06
+ 0.000000074 4.642900000000e-06
+ 0.000000075 4.666400000000e-06
+ 0.000000076 4.688900000000e-06
+ 0.000000077 4.710600000000e-06
+ 0.000000078 4.731500000000e-06
+ 0.000000079 4.751600000000e-06
)

I_PRED_VD0.02 0 id_pred_vd0.02 PWL(
+ 0.000000000 1.456778697673e-10
+ 0.000000001 2.137981525152e-10
+ 0.000000002 3.144101157204e-10
+ 0.000000003 4.621736593435e-10
+ 0.000000004 6.780781092175e-10
+ 0.000000005 9.922707278065e-10
+ 0.000000006 1.448235451562e-09
+ 0.000000007 2.108810548407e-09
+ 0.000000008 3.064841394007e-09
+ 0.000000009 4.447545052244e-09
+ 0.000000010 6.446107931879e-09
+ 0.000000011 9.332759987046e-09
+ 0.000000012 1.349756416857e-08
+ 0.000000013 1.949491434061e-08
+ 0.000000014 2.810066689563e-08
+ 0.000000015 4.037383405375e-08
+ 0.000000016 5.770816642325e-08
+ 0.000000017 8.184872058337e-08
+ 0.000000018 1.148444607679e-07
+ 0.000000019 1.589088060427e-07
+ 0.000000020 2.161866723327e-07
+ 0.000000021 2.884577588702e-07
+ 0.000000022 3.768338865484e-07
+ 0.000000023 4.815354259335e-07
+ 0.000000024 6.017924533808e-07
+ 0.000000025 7.359194569290e-07
+ 0.000000026 8.815071487334e-07
+ 0.000000027 1.035695968312e-06
+ 0.000000028 1.195480508613e-06
+ 0.000000029 1.357968139928e-06
+ 0.000000030 1.520556397736e-06
+ 0.000000031 1.681071589701e-06
+ 0.000000032 1.837807503762e-06
+ 0.000000033 1.989515876630e-06
+ 0.000000034 2.135361282853e-06
+ 0.000000035 2.274858561577e-06
+ 0.000000036 2.407824067632e-06
+ 0.000000037 2.534262021072e-06
+ 0.000000038 2.654354320839e-06
+ 0.000000039 2.768358681351e-06
+ 0.000000040 2.876606886275e-06
+ 0.000000041 2.979459532071e-06
+ 0.000000042 3.077284782194e-06
+ 0.000000043 3.170417621732e-06
+ 0.000000044 3.259199729655e-06
+ 0.000000045 3.343930875417e-06
+ 0.000000046 3.424868918955e-06
+ 0.000000047 3.502264444251e-06
+ 0.000000048 3.576319722924e-06
+ 0.000000049 3.647225094028e-06
+ 0.000000050 3.715129569173e-06
+ 0.000000051 3.780175466090e-06
+ 0.000000052 3.842466685455e-06
+ 0.000000053 3.902113239747e-06
+ 0.000000054 3.959187888540e-06
+ 0.000000055 4.013780853711e-06
+ 0.000000056 4.065953544341e-06
+ 0.000000057 4.115761548746e-06
+ 0.000000058 4.163260164205e-06
+ 0.000000059 4.208500904497e-06
+ 0.000000060 4.251544014551e-06
+ 0.000000061 4.292435187381e-06
+ 0.000000062 4.331203526817e-06
+ 0.000000063 4.367905203253e-06
+ 0.000000064 4.402603954077e-06
+ 0.000000065 4.435340233613e-06
+ 0.000000066 4.466147220228e-06
+ 0.000000067 4.495097091421e-06
+ 0.000000068 4.522241652012e-06
+ 0.000000069 4.547615535557e-06
+ 0.000000070 4.571282770485e-06
+ 0.000000071 4.593307676259e-06
+ 0.000000072 4.613730998244e-06
+ 0.000000073 4.632619093172e-06
+ 0.000000074 4.650023474824e-06
+ 0.000000075 4.666011082008e-06
+ 0.000000076 4.680624988396e-06
+ 0.000000077 4.693928058259e-06
+ 0.000000078 4.705985193141e-06
+ 0.000000079 4.716831608675e-06
)

* Id-Vg curve for Vd = 0.03
VG_VD0.03 vg 0 PWL(
+ 0.000000000 0.010000
+ 0.000000001 0.020000
+ 0.000000002 0.030000
+ 0.000000003 0.040000
+ 0.000000004 0.050000
+ 0.000000005 0.060000
+ 0.000000006 0.070000
+ 0.000000007 0.080000
+ 0.000000008 0.090000
+ 0.000000009 0.100000
+ 0.000000010 0.110000
+ 0.000000011 0.120000
+ 0.000000012 0.130000
+ 0.000000013 0.140000
+ 0.000000014 0.150000
+ 0.000000015 0.160000
+ 0.000000016 0.170000
+ 0.000000017 0.180000
+ 0.000000018 0.190000
+ 0.000000019 0.200000
+ 0.000000020 0.210000
+ 0.000000021 0.220000
+ 0.000000022 0.230000
+ 0.000000023 0.240000
+ 0.000000024 0.250000
+ 0.000000025 0.260000
+ 0.000000026 0.270000
+ 0.000000027 0.280000
+ 0.000000028 0.290000
+ 0.000000029 0.300000
+ 0.000000030 0.310000
+ 0.000000031 0.320000
+ 0.000000032 0.330000
+ 0.000000033 0.340000
+ 0.000000034 0.350000
+ 0.000000035 0.360000
+ 0.000000036 0.370000
+ 0.000000037 0.380000
+ 0.000000038 0.390000
+ 0.000000039 0.400000
+ 0.000000040 0.410000
+ 0.000000041 0.420000
+ 0.000000042 0.430000
+ 0.000000043 0.440000
+ 0.000000044 0.450000
+ 0.000000045 0.460000
+ 0.000000046 0.470000
+ 0.000000047 0.480000
+ 0.000000048 0.490000
+ 0.000000049 0.500000
+ 0.000000050 0.510000
+ 0.000000051 0.520000
+ 0.000000052 0.530000
+ 0.000000053 0.540000
+ 0.000000054 0.550000
+ 0.000000055 0.560000
+ 0.000000056 0.570000
+ 0.000000057 0.580000
+ 0.000000058 0.590000
+ 0.000000059 0.600000
+ 0.000000060 0.610000
+ 0.000000061 0.620000
+ 0.000000062 0.630000
+ 0.000000063 0.640000
+ 0.000000064 0.650000
+ 0.000000065 0.660000
+ 0.000000066 0.670000
+ 0.000000067 0.680000
+ 0.000000068 0.690000
+ 0.000000069 0.700000
+ 0.000000070 0.710000
+ 0.000000071 0.720000
+ 0.000000072 0.730000
+ 0.000000073 0.740000
+ 0.000000074 0.750000
+ 0.000000075 0.760000
+ 0.000000076 0.770000
+ 0.000000077 0.780000
+ 0.000000078 0.790000
+ 0.000000079 0.800000
)

I_ACTUAL_VD0.03 0 id_actual_vd0.03 PWL(
+ 0.000000000 1.899920000000e-10
+ 0.000000001 2.771750000000e-10
+ 0.000000002 4.043540000000e-10
+ 0.000000003 5.898610000000e-10
+ 0.000000004 8.604170000000e-10
+ 0.000000005 1.255000000000e-09
+ 0.000000006 1.830200000000e-09
+ 0.000000007 2.668500000000e-09
+ 0.000000008 3.889600000000e-09
+ 0.000000009 5.667200000000e-09
+ 0.000000010 8.252200000000e-09
+ 0.000000011 1.200550000000e-08
+ 0.000000012 1.744360000000e-08
+ 0.000000013 2.529830000000e-08
+ 0.000000014 3.659350000000e-08
+ 0.000000015 5.273540000000e-08
+ 0.000000016 7.560430000000e-08
+ 0.000000017 1.076220000000e-07
+ 0.000000018 1.517480000000e-07
+ 0.000000019 2.113360000000e-07
+ 0.000000020 2.898030000000e-07
+ 0.000000021 3.900970000000e-07
+ 0.000000022 5.140750000000e-07
+ 0.000000023 6.619870000000e-07
+ 0.000000024 8.322910000000e-07
+ 0.000000025 1.021900000000e-06
+ 0.000000026 1.226700000000e-06
+ 0.000000027 1.442300000000e-06
+ 0.000000028 1.664600000000e-06
+ 0.000000029 1.890000000000e-06
+ 0.000000030 2.115400000000e-06
+ 0.000000031 2.338800000000e-06
+ 0.000000032 2.558400000000e-06
+ 0.000000033 2.773000000000e-06
+ 0.000000034 2.981800000000e-06
+ 0.000000035 3.184200000000e-06
+ 0.000000036 3.379800000000e-06
+ 0.000000037 3.568400000000e-06
+ 0.000000038 3.749900000000e-06
+ 0.000000039 3.924200000000e-06
+ 0.000000040 4.091400000000e-06
+ 0.000000041 4.251600000000e-06
+ 0.000000042 4.404900000000e-06
+ 0.000000043 4.551600000000e-06
+ 0.000000044 4.691700000000e-06
+ 0.000000045 4.825600000000e-06
+ 0.000000046 4.953500000000e-06
+ 0.000000047 5.075600000000e-06
+ 0.000000048 5.192100000000e-06
+ 0.000000049 5.303300000000e-06
+ 0.000000050 5.409400000000e-06
+ 0.000000051 5.510600000000e-06
+ 0.000000052 5.607300000000e-06
+ 0.000000053 5.699500000000e-06
+ 0.000000054 5.787600000000e-06
+ 0.000000055 5.871700000000e-06
+ 0.000000056 5.952000000000e-06
+ 0.000000057 6.028800000000e-06
+ 0.000000058 6.102100000000e-06
+ 0.000000059 6.172200000000e-06
+ 0.000000060 6.239300000000e-06
+ 0.000000061 6.303500000000e-06
+ 0.000000062 6.364900000000e-06
+ 0.000000063 6.423700000000e-06
+ 0.000000064 6.480000000000e-06
+ 0.000000065 6.533900000000e-06
+ 0.000000066 6.585600000000e-06
+ 0.000000067 6.635200000000e-06
+ 0.000000068 6.682800000000e-06
+ 0.000000069 6.728400000000e-06
+ 0.000000070 6.772300000000e-06
+ 0.000000071 6.814400000000e-06
+ 0.000000072 6.854800000000e-06
+ 0.000000073 6.893700000000e-06
+ 0.000000074 6.931000000000e-06
+ 0.000000075 6.967000000000e-06
+ 0.000000076 7.001500000000e-06
+ 0.000000077 7.034800000000e-06
+ 0.000000078 7.066900000000e-06
+ 0.000000079 7.097700000000e-06
)

I_PRED_VD0.03 0 id_pred_vd0.03 PWL(
+ 0.000000000 1.861711851348e-10
+ 0.000000001 2.727115866463e-10
+ 0.000000002 4.005906539817e-10
+ 0.000000003 5.885365261804e-10
+ 0.000000004 8.634202686153e-10
+ 0.000000005 1.263943296692e-09
+ 0.000000006 1.846051844723e-09
+ 0.000000007 2.690773897029e-09
+ 0.000000008 3.915456119330e-09
+ 0.000000009 5.689836655165e-09
+ 0.000000010 8.259114565590e-09
+ 0.000000011 1.197685151055e-08
+ 0.000000012 1.735140926939e-08
+ 0.000000013 2.510861577321e-08
+ 0.000000014 3.627082378443e-08
+ 0.000000015 5.224448159424e-08
+ 0.000000016 7.489924200854e-08
+ 0.000000017 1.066047593667e-07
+ 0.000000018 1.501863380327e-07
+ 0.000000019 2.087576285703e-07
+ 0.000000020 2.854238300642e-07
+ 0.000000021 3.828816807072e-07
+ 0.000000022 5.029957719671e-07
+ 0.000000023 6.464607758971e-07
+ 0.000000024 8.126270950015e-07
+ 0.000000025 9.995388973039e-07
+ 0.000000026 1.204168656841e-06
+ 0.000000027 1.422750356141e-06
+ 0.000000028 1.651201637287e-06
+ 0.000000029 1.885468955152e-06
+ 0.000000030 2.121807192452e-06
+ 0.000000031 2.356989207328e-06
+ 0.000000032 2.588389324956e-06
+ 0.000000033 2.813984756358e-06
+ 0.000000034 3.032336171600e-06
+ 0.000000035 3.242508028052e-06
+ 0.000000036 3.443980385782e-06
+ 0.000000037 3.636576220742e-06
+ 0.000000038 3.820327401627e-06
+ 0.000000039 3.995483421022e-06
+ 0.000000040 4.162367113167e-06
+ 0.000000041 4.321387968957e-06
+ 0.000000042 4.472975560930e-06
+ 0.000000043 4.617573868018e-06
+ 0.000000044 4.755594563903e-06
+ 0.000000045 4.887438408332e-06
+ 0.000000046 5.013476475142e-06
+ 0.000000047 5.134036618983e-06
+ 0.000000048 5.249405221548e-06
+ 0.000000049 5.359851638786e-06
+ 0.000000050 5.465596768772e-06
+ 0.000000051 5.566840991378e-06
+ 0.000000052 5.663767224178e-06
+ 0.000000053 5.756525642937e-06
+ 0.000000054 5.845231935382e-06
+ 0.000000055 5.930037586950e-06
+ 0.000000056 6.011049990775e-06
+ 0.000000057 6.088336376706e-06
+ 0.000000058 6.162013305584e-06
+ 0.000000059 6.232170271687e-06
+ 0.000000060 6.298883672571e-06
+ 0.000000061 6.362226413330e-06
+ 0.000000062 6.422291044146e-06
+ 0.000000063 6.479158764705e-06
+ 0.000000064 6.532890693052e-06
+ 0.000000065 6.583595095435e-06
+ 0.000000066 6.631333963014e-06
+ 0.000000067 6.676190241706e-06
+ 0.000000068 6.718261283822e-06
+ 0.000000069 6.757625669707e-06
+ 0.000000070 6.794355867896e-06
+ 0.000000071 6.828569748905e-06
+ 0.000000072 6.860331923235e-06
+ 0.000000073 6.889737996971e-06
+ 0.000000074 6.916875281604e-06
+ 0.000000075 6.941835017642e-06
+ 0.000000076 6.964712374611e-06
+ 0.000000077 6.985573272686e-06
+ 0.000000078 7.004532089923e-06
+ 0.000000079 7.021653873380e-06
)

* Id-Vg curve for Vd = 0.04
VG_VD0.04 vg 0 PWL(
+ 0.000000000 0.010000
+ 0.000000001 0.020000
+ 0.000000002 0.030000
+ 0.000000003 0.040000
+ 0.000000004 0.050000
+ 0.000000005 0.060000
+ 0.000000006 0.070000
+ 0.000000007 0.080000
+ 0.000000008 0.090000
+ 0.000000009 0.100000
+ 0.000000010 0.110000
+ 0.000000011 0.120000
+ 0.000000012 0.130000
+ 0.000000013 0.140000
+ 0.000000014 0.150000
+ 0.000000015 0.160000
+ 0.000000016 0.170000
+ 0.000000017 0.180000
+ 0.000000018 0.190000
+ 0.000000019 0.200000
+ 0.000000020 0.210000
+ 0.000000021 0.220000
+ 0.000000022 0.230000
+ 0.000000023 0.240000
+ 0.000000024 0.250000
+ 0.000000025 0.260000
+ 0.000000026 0.270000
+ 0.000000027 0.280000
+ 0.000000028 0.290000
+ 0.000000029 0.300000
+ 0.000000030 0.310000
+ 0.000000031 0.320000
+ 0.000000032 0.330000
+ 0.000000033 0.340000
+ 0.000000034 0.350000
+ 0.000000035 0.360000
+ 0.000000036 0.370000
+ 0.000000037 0.380000
+ 0.000000038 0.390000
+ 0.000000039 0.400000
+ 0.000000040 0.410000
+ 0.000000041 0.420000
+ 0.000000042 0.430000
+ 0.000000043 0.440000
+ 0.000000044 0.450000
+ 0.000000045 0.460000
+ 0.000000046 0.470000
+ 0.000000047 0.480000
+ 0.000000048 0.490000
+ 0.000000049 0.500000
+ 0.000000050 0.510000
+ 0.000000051 0.520000
+ 0.000000052 0.530000
+ 0.000000053 0.540000
+ 0.000000054 0.550000
+ 0.000000055 0.560000
+ 0.000000056 0.570000
+ 0.000000057 0.580000
+ 0.000000058 0.590000
+ 0.000000059 0.600000
+ 0.000000060 0.610000
+ 0.000000061 0.620000
+ 0.000000062 0.630000
+ 0.000000063 0.640000
+ 0.000000064 0.650000
+ 0.000000065 0.660000
+ 0.000000066 0.670000
+ 0.000000067 0.680000
+ 0.000000068 0.690000
+ 0.000000069 0.700000
+ 0.000000070 0.710000
+ 0.000000071 0.720000
+ 0.000000072 0.730000
+ 0.000000073 0.740000
+ 0.000000074 0.750000
+ 0.000000075 0.760000
+ 0.000000076 0.770000
+ 0.000000077 0.780000
+ 0.000000078 0.790000
+ 0.000000079 0.800000
)

I_ACTUAL_VD0.04 0 id_actual_vd0.04 PWL(
+ 0.000000000 2.183440000000e-10
+ 0.000000001 3.185250000000e-10
+ 0.000000002 4.646600000000e-10
+ 0.000000003 6.778100000000e-10
+ 0.000000004 9.886780000000e-10
+ 0.000000005 1.442000000000e-09
+ 0.000000006 2.102900000000e-09
+ 0.000000007 3.066100000000e-09
+ 0.000000008 4.469400000000e-09
+ 0.000000009 6.512300000000e-09
+ 0.000000010 9.483700000000e-09
+ 0.000000011 1.379950000000e-08
+ 0.000000012 2.005540000000e-08
+ 0.000000013 2.909780000000e-08
+ 0.000000014 4.211440000000e-08
+ 0.000000015 6.074440000000e-08
+ 0.000000016 8.719530000000e-08
+ 0.000000017 1.243410000000e-07
+ 0.000000018 1.757520000000e-07
+ 0.000000019 2.455780000000e-07
+ 0.000000020 3.382250000000e-07
+ 0.000000021 4.577830000000e-07
+ 0.000000022 6.072940000000e-07
+ 0.000000023 7.880430000000e-07
+ 0.000000024 9.991350000000e-07
+ 0.000000025 1.237500000000e-06
+ 0.000000026 1.498600000000e-06
+ 0.000000027 1.776700000000e-06
+ 0.000000028 2.066400000000e-06
+ 0.000000029 2.362500000000e-06
+ 0.000000030 2.660700000000e-06
+ 0.000000031 2.957700000000e-06
+ 0.000000032 3.250900000000e-06
+ 0.000000033 3.538300000000e-06
+ 0.000000034 3.818600000000e-06
+ 0.000000035 4.090900000000e-06
+ 0.000000036 4.354500000000e-06
+ 0.000000037 4.609100000000e-06
+ 0.000000038 4.854400000000e-06
+ 0.000000039 5.090300000000e-06
+ 0.000000040 5.316800000000e-06
+ 0.000000041 5.534000000000e-06
+ 0.000000042 5.742200000000e-06
+ 0.000000043 5.941400000000e-06
+ 0.000000044 6.132000000000e-06
+ 0.000000045 6.314200000000e-06
+ 0.000000046 6.488200000000e-06
+ 0.000000047 6.654500000000e-06
+ 0.000000048 6.813300000000e-06
+ 0.000000049 6.964900000000e-06
+ 0.000000050 7.109600000000e-06
+ 0.000000051 7.247800000000e-06
+ 0.000000052 7.379700000000e-06
+ 0.000000053 7.505700000000e-06
+ 0.000000054 7.626000000000e-06
+ 0.000000055 7.740800000000e-06
+ 0.000000056 7.850600000000e-06
+ 0.000000057 7.955500000000e-06
+ 0.000000058 8.055700000000e-06
+ 0.000000059 8.151600000000e-06
+ 0.000000060 8.243200000000e-06
+ 0.000000061 8.331000000000e-06
+ 0.000000062 8.414900000000e-06
+ 0.000000063 8.495300000000e-06
+ 0.000000064 8.572200000000e-06
+ 0.000000065 8.646000000000e-06
+ 0.000000066 8.716700000000e-06
+ 0.000000067 8.784500000000e-06
+ 0.000000068 8.849500000000e-06
+ 0.000000069 8.911800000000e-06
+ 0.000000070 8.971700000000e-06
+ 0.000000071 9.029200000000e-06
+ 0.000000072 9.084400000000e-06
+ 0.000000073 9.137500000000e-06
+ 0.000000074 9.188500000000e-06
+ 0.000000075 9.237600000000e-06
+ 0.000000076 9.284800000000e-06
+ 0.000000077 9.330200000000e-06
+ 0.000000078 9.373900000000e-06
+ 0.000000079 9.416100000000e-06
)

I_PRED_VD0.04 0 id_pred_vd0.04 PWL(
+ 0.000000000 2.147539923669e-10
+ 0.000000001 3.139287940712e-10
+ 0.000000002 4.604901349126e-10
+ 0.000000003 6.759600523765e-10
+ 0.000000004 9.912714205029e-10
+ 0.000000005 1.451068811775e-09
+ 0.000000006 2.120021065366e-09
+ 0.000000007 3.091963662882e-09
+ 0.000000008 4.502927026806e-09
+ 0.000000009 6.549920499310e-09
+ 0.000000010 9.517726198283e-09
+ 0.000000011 1.381769607178e-08
+ 0.000000012 2.004281441259e-08
+ 0.000000013 2.904286247940e-08
+ 0.000000014 4.202117906971e-08
+ 0.000000015 6.064481567591e-08
+ 0.000000016 8.714865543880e-08
+ 0.000000017 1.243966380571e-07
+ 0.000000018 1.758481448633e-07
+ 0.000000019 2.453843990224e-07
+ 0.000000020 3.369668775122e-07
+ 0.000000021 4.541664384305e-07
+ 0.000000022 5.996409527143e-07
+ 0.000000023 7.746887422400e-07
+ 0.000000024 9.789929754334e-07
+ 0.000000025 1.210605914821e-06
+ 0.000000026 1.466180547141e-06
+ 0.000000027 1.741349988151e-06
+ 0.000000028 2.031215262832e-06
+ 0.000000029 2.330768329557e-06
+ 0.000000030 2.635279379319e-06
+ 0.000000031 2.940545382444e-06
+ 0.000000032 3.243032260798e-06
+ 0.000000033 3.539928875398e-06
+ 0.000000034 3.829123743344e-06
+ 0.000000035 4.109151195735e-06
+ 0.000000036 4.379051970318e-06
+ 0.000000037 4.638337413780e-06
+ 0.000000038 4.886835231446e-06
+ 0.000000039 5.124622839503e-06
+ 0.000000040 5.351967993192e-06
+ 0.000000041 5.569222266786e-06
+ 0.000000042 5.776832695119e-06
+ 0.000000043 5.975256790407e-06
+ 0.000000044 6.164967198856e-06
+ 0.000000045 6.346412701532e-06
+ 0.000000046 6.520015886053e-06
+ 0.000000047 6.686164997518e-06
+ 0.000000048 6.845245370641e-06
+ 0.000000049 6.997558521107e-06
+ 0.000000050 7.143389084376e-06
+ 0.000000051 7.283008890226e-06
+ 0.000000052 7.416644948535e-06
+ 0.000000053 7.544505642727e-06
+ 0.000000054 7.666771416552e-06
+ 0.000000055 7.783600012772e-06
+ 0.000000056 7.895150920376e-06
+ 0.000000057 8.001574897207e-06
+ 0.000000058 8.103001164272e-06
+ 0.000000059 8.199548465200e-06
+ 0.000000060 8.291330304928e-06
+ 0.000000061 8.378471829928e-06
+ 0.000000062 8.461105171591e-06
+ 0.000000063 8.539339760318e-06
+ 0.000000064 8.613269310445e-06
+ 0.000000065 8.683026535437e-06
+ 0.000000066 8.748741820455e-06
+ 0.000000067 8.810517028905e-06
+ 0.000000068 8.868464501575e-06
+ 0.000000069 8.922707638703e-06
+ 0.000000070 8.973396616057e-06
+ 0.000000071 9.020622237585e-06
+ 0.000000072 9.064507903531e-06
+ 0.000000073 9.105193894356e-06
+ 0.000000074 9.142809431069e-06
+ 0.000000075 9.177447063848e-06
+ 0.000000076 9.209263953380e-06
+ 0.000000077 9.238345082849e-06
+ 0.000000078 9.264849359170e-06
+ 0.000000079 9.288860601373e-06
)

* Id-Vg curve for Vd = 0.05
VG_VD0.05 vg 0 PWL(
+ 0.000000000 0.010000
+ 0.000000001 0.020000
+ 0.000000002 0.030000
+ 0.000000003 0.040000
+ 0.000000004 0.050000
+ 0.000000005 0.060000
+ 0.000000006 0.070000
+ 0.000000007 0.080000
+ 0.000000008 0.090000
+ 0.000000009 0.100000
+ 0.000000010 0.110000
+ 0.000000011 0.120000
+ 0.000000012 0.130000
+ 0.000000013 0.140000
+ 0.000000014 0.150000
+ 0.000000015 0.160000
+ 0.000000016 0.170000
+ 0.000000017 0.180000
+ 0.000000018 0.190000
+ 0.000000019 0.200000
+ 0.000000020 0.210000
+ 0.000000021 0.220000
+ 0.000000022 0.230000
+ 0.000000023 0.240000
+ 0.000000024 0.250000
+ 0.000000025 0.260000
+ 0.000000026 0.270000
+ 0.000000027 0.280000
+ 0.000000028 0.290000
+ 0.000000029 0.300000
+ 0.000000030 0.310000
+ 0.000000031 0.320000
+ 0.000000032 0.330000
+ 0.000000033 0.340000
+ 0.000000034 0.350000
+ 0.000000035 0.360000
+ 0.000000036 0.370000
+ 0.000000037 0.380000
+ 0.000000038 0.390000
+ 0.000000039 0.400000
+ 0.000000040 0.410000
+ 0.000000041 0.420000
+ 0.000000042 0.430000
+ 0.000000043 0.440000
+ 0.000000044 0.450000
+ 0.000000045 0.460000
+ 0.000000046 0.470000
+ 0.000000047 0.480000
+ 0.000000048 0.490000
+ 0.000000049 0.500000
+ 0.000000050 0.510000
+ 0.000000051 0.520000
+ 0.000000052 0.530000
+ 0.000000053 0.540000
+ 0.000000054 0.550000
+ 0.000000055 0.560000
+ 0.000000056 0.570000
+ 0.000000057 0.580000
+ 0.000000058 0.590000
+ 0.000000059 0.600000
+ 0.000000060 0.610000
+ 0.000000061 0.620000
+ 0.000000062 0.630000
+ 0.000000063 0.640000
+ 0.000000064 0.650000
+ 0.000000065 0.660000
+ 0.000000066 0.670000
+ 0.000000067 0.680000
+ 0.000000068 0.690000
+ 0.000000069 0.700000
+ 0.000000070 0.710000
+ 0.000000071 0.720000
+ 0.000000072 0.730000
+ 0.000000073 0.740000
+ 0.000000074 0.750000
+ 0.000000075 0.760000
+ 0.000000076 0.770000
+ 0.000000077 0.780000
+ 0.000000078 0.790000
+ 0.000000079 0.800000
)

I_ACTUAL_VD0.05 0 id_actual_vd0.05 PWL(
+ 0.000000000 2.383360000000e-10
+ 0.000000001 3.476720000000e-10
+ 0.000000002 5.071520000000e-10
+ 0.000000003 7.397580000000e-10
+ 0.000000004 1.079000000000e-09
+ 0.000000005 1.573700000000e-09
+ 0.000000006 2.294800000000e-09
+ 0.000000007 3.345900000000e-09
+ 0.000000008 4.877100000000e-09
+ 0.000000009 7.106500000000e-09
+ 0.000000010 1.034930000000e-08
+ 0.000000011 1.506010000000e-08
+ 0.000000012 2.189060000000e-08
+ 0.000000013 3.176760000000e-08
+ 0.000000014 4.599460000000e-08
+ 0.000000015 6.637600000000e-08
+ 0.000000016 9.535320000000e-08
+ 0.000000017 1.361270000000e-07
+ 0.000000018 1.927150000000e-07
+ 0.000000019 2.698700000000e-07
+ 0.000000020 3.727770000000e-07
+ 0.000000021 5.064870000000e-07
+ 0.000000022 6.751480000000e-07
+ 0.000000023 8.811830000000e-07
+ 0.000000024 1.124700000000e-06
+ 0.000000025 1.403200000000e-06
+ 0.000000026 1.712200000000e-06
+ 0.000000027 2.045400000000e-06
+ 0.000000028 2.396300000000e-06
+ 0.000000029 2.758300000000e-06
+ 0.000000030 3.125800000000e-06
+ 0.000000031 3.494000000000e-06
+ 0.000000032 3.859200000000e-06
+ 0.000000033 4.218600000000e-06
+ 0.000000034 4.570300000000e-06
+ 0.000000035 4.912800000000e-06
+ 0.000000036 5.245000000000e-06
+ 0.000000037 5.566400000000e-06
+ 0.000000038 5.876600000000e-06
+ 0.000000039 6.175300000000e-06
+ 0.000000040 6.462600000000e-06
+ 0.000000041 6.738400000000e-06
+ 0.000000042 7.002900000000e-06
+ 0.000000043 7.256300000000e-06
+ 0.000000044 7.498900000000e-06
+ 0.000000045 7.731000000000e-06
+ 0.000000046 7.953000000000e-06
+ 0.000000047 8.165200000000e-06
+ 0.000000048 8.367900000000e-06
+ 0.000000049 8.561500000000e-06
+ 0.000000050 8.746500000000e-06
+ 0.000000051 8.923200000000e-06
+ 0.000000052 9.092000000000e-06
+ 0.000000053 9.253200000000e-06
+ 0.000000054 9.407200000000e-06
+ 0.000000055 9.554300000000e-06
+ 0.000000056 9.694900000000e-06
+ 0.000000057 9.829200000000e-06
+ 0.000000058 9.957700000000e-06
+ 0.000000059 1.008050000000e-05
+ 0.000000060 1.019800000000e-05
+ 0.000000061 1.031050000000e-05
+ 0.000000062 1.041810000000e-05
+ 0.000000063 1.052110000000e-05
+ 0.000000064 1.061980000000e-05
+ 0.000000065 1.071440000000e-05
+ 0.000000066 1.080500000000e-05
+ 0.000000067 1.089190000000e-05
+ 0.000000068 1.097520000000e-05
+ 0.000000069 1.105520000000e-05
+ 0.000000070 1.113190000000e-05
+ 0.000000071 1.120560000000e-05
+ 0.000000072 1.127640000000e-05
+ 0.000000073 1.134440000000e-05
+ 0.000000074 1.140980000000e-05
+ 0.000000075 1.147260000000e-05
+ 0.000000076 1.153300000000e-05
+ 0.000000077 1.159120000000e-05
+ 0.000000078 1.164710000000e-05
+ 0.000000079 1.170100000000e-05
)

I_PRED_VD0.05 0 id_pred_vd0.05 PWL(
+ 0.000000000 2.355277750610e-10
+ 0.000000001 3.435613127323e-10
+ 0.000000002 5.031818961498e-10
+ 0.000000003 7.378449407014e-10
+ 0.000000004 1.081305445183e-09
+ 0.000000005 1.582378850173e-09
+ 0.000000006 2.311887747908e-09
+ 0.000000007 3.372719703520e-09
+ 0.000000008 4.914190654404e-09
+ 0.000000009 7.152573999747e-09
+ 0.000000010 1.040068298153e-08
+ 0.000000011 1.511071019422e-08
+ 0.000000012 2.193568917619e-08
+ 0.000000013 3.181422414400e-08
+ 0.000000014 4.608139363427e-08
+ 0.000000015 6.659748237325e-08
+ 0.000000016 9.587531621946e-08
+ 0.000000017 1.371651592308e-07
+ 0.000000018 1.944390760400e-07
+ 0.000000019 2.722191993598e-07
+ 0.000000020 3.752195880224e-07
+ 0.000000021 5.078163667349e-07
+ 0.000000022 6.734534963471e-07
+ 0.000000023 8.741022611503e-07
+ 0.000000024 1.109917866415e-06
+ 0.000000025 1.379164314130e-06
+ 0.000000026 1.678416447248e-06
+ 0.000000027 2.002974542847e-06
+ 0.000000028 2.347348890908e-06
+ 0.000000029 2.705799488467e-06
+ 0.000000030 3.072764229728e-06
+ 0.000000031 3.443157766014e-06
+ 0.000000032 3.812617069343e-06
+ 0.000000033 4.177544178674e-06
+ 0.000000034 4.535140033113e-06
+ 0.000000035 4.883340807282e-06
+ 0.000000036 5.220705497777e-06
+ 0.000000037 5.546330430661e-06
+ 0.000000038 5.859757584403e-06
+ 0.000000039 6.160829070723e-06
+ 0.000000040 6.449643842643e-06
+ 0.000000041 6.726470019203e-06
+ 0.000000042 6.991661211941e-06
+ 0.000000043 7.245667802636e-06
+ 0.000000044 7.488935079891e-06
+ 0.000000045 7.721937436145e-06
+ 0.000000046 7.945130346343e-06
+ 0.000000047 8.158932178048e-06
+ 0.000000048 8.363750384888e-06
+ 0.000000049 8.559935668018e-06
+ 0.000000050 8.747848914936e-06
+ 0.000000051 8.927780436352e-06
+ 0.000000052 9.100011084229e-06
+ 0.000000053 9.264804975828e-06
+ 0.000000054 9.422370203538e-06
+ 0.000000055 9.572932322044e-06
+ 0.000000056 9.716676140670e-06
+ 0.000000057 9.853797382675e-06
+ 0.000000058 9.984461212298e-06
+ 0.000000059 1.010882406263e-05
+ 0.000000060 1.022709620884e-05
+ 0.000000061 1.033935404848e-05
+ 0.000000062 1.044582822942e-05
+ 0.000000063 1.054660824593e-05
+ 0.000000064 1.064189273166e-05
+ 0.000000065 1.073182502296e-05
+ 0.000000066 1.081657319446e-05
+ 0.000000067 1.089627403417e-05
+ 0.000000068 1.097108906833e-05
+ 0.000000069 1.104117181967e-05
+ 0.000000070 1.110668090405e-05
+ 0.000000071 1.116779603763e-05
+ 0.000000072 1.122467510868e-05
+ 0.000000073 1.127743380493e-05
+ 0.000000074 1.132628094638e-05
+ 0.000000075 1.137135914178e-05
+ 0.000000076 1.141282846220e-05
+ 0.000000077 1.145082278526e-05
+ 0.000000078 1.148552546510e-05
+ 0.000000079 1.151707037934e-05
)

* Id-Vg curve for Vd = 0.06
VG_VD0.06 vg 0 PWL(
+ 0.000000000 0.010000
+ 0.000000001 0.020000
+ 0.000000002 0.030000
+ 0.000000003 0.040000
+ 0.000000004 0.050000
+ 0.000000005 0.060000
+ 0.000000006 0.070000
+ 0.000000007 0.080000
+ 0.000000008 0.090000
+ 0.000000009 0.100000
+ 0.000000010 0.110000
+ 0.000000011 0.120000
+ 0.000000012 0.130000
+ 0.000000013 0.140000
+ 0.000000014 0.150000
+ 0.000000015 0.160000
+ 0.000000016 0.170000
+ 0.000000017 0.180000
+ 0.000000018 0.190000
+ 0.000000019 0.200000
+ 0.000000020 0.210000
+ 0.000000021 0.220000
+ 0.000000022 0.230000
+ 0.000000023 0.240000
+ 0.000000024 0.250000
+ 0.000000025 0.260000
+ 0.000000026 0.270000
+ 0.000000027 0.280000
+ 0.000000028 0.290000
+ 0.000000029 0.300000
+ 0.000000030 0.310000
+ 0.000000031 0.320000
+ 0.000000032 0.330000
+ 0.000000033 0.340000
+ 0.000000034 0.350000
+ 0.000000035 0.360000
+ 0.000000036 0.370000
+ 0.000000037 0.380000
+ 0.000000038 0.390000
+ 0.000000039 0.400000
+ 0.000000040 0.410000
+ 0.000000041 0.420000
+ 0.000000042 0.430000
+ 0.000000043 0.440000
+ 0.000000044 0.450000
+ 0.000000045 0.460000
+ 0.000000046 0.470000
+ 0.000000047 0.480000
+ 0.000000048 0.490000
+ 0.000000049 0.500000
+ 0.000000050 0.510000
+ 0.000000051 0.520000
+ 0.000000052 0.530000
+ 0.000000053 0.540000
+ 0.000000054 0.550000
+ 0.000000055 0.560000
+ 0.000000056 0.570000
+ 0.000000057 0.580000
+ 0.000000058 0.590000
+ 0.000000059 0.600000
+ 0.000000060 0.610000
+ 0.000000061 0.620000
+ 0.000000062 0.630000
+ 0.000000063 0.640000
+ 0.000000064 0.650000
+ 0.000000065 0.660000
+ 0.000000066 0.670000
+ 0.000000067 0.680000
+ 0.000000068 0.690000
+ 0.000000069 0.700000
+ 0.000000070 0.710000
+ 0.000000071 0.720000
+ 0.000000072 0.730000
+ 0.000000073 0.740000
+ 0.000000074 0.750000
+ 0.000000075 0.760000
+ 0.000000076 0.770000
+ 0.000000077 0.780000
+ 0.000000078 0.790000
+ 0.000000079 0.800000
)

I_ACTUAL_VD0.06 0 id_actual_vd0.06 PWL(
+ 0.000000000 2.531020000000e-10
+ 0.000000001 3.691890000000e-10
+ 0.000000002 5.385060000000e-10
+ 0.000000003 7.854450000000e-10
+ 0.000000004 1.145600000000e-09
+ 0.000000005 1.670600000000e-09
+ 0.000000006 2.436100000000e-09
+ 0.000000007 3.551800000000e-09
+ 0.000000008 5.177000000000e-09
+ 0.000000009 7.543300000000e-09
+ 0.000000010 1.098530000000e-08
+ 0.000000011 1.598600000000e-08
+ 0.000000012 2.323780000000e-08
+ 0.000000013 3.372640000000e-08
+ 0.000000014 4.884020000000e-08
+ 0.000000015 7.050410000000e-08
+ 0.000000016 1.013310000000e-07
+ 0.000000017 1.447610000000e-07
+ 0.000000018 2.051410000000e-07
+ 0.000000019 2.876720000000e-07
+ 0.000000020 3.981260000000e-07
+ 0.000000021 5.423090000000e-07
+ 0.000000022 7.252770000000e-07
+ 0.000000023 9.504910000000e-07
+ 0.000000024 1.219100000000e-06
+ 0.000000025 1.529600000000e-06
+ 0.000000026 1.877800000000e-06
+ 0.000000027 2.257800000000e-06
+ 0.000000028 2.662200000000e-06
+ 0.000000029 3.083600000000e-06
+ 0.000000030 3.514900000000e-06
+ 0.000000031 3.950300000000e-06
+ 0.000000032 4.384600000000e-06
+ 0.000000033 4.814100000000e-06
+ 0.000000034 5.235900000000e-06
+ 0.000000035 5.647900000000e-06
+ 0.000000036 6.048700000000e-06
+ 0.000000037 6.437300000000e-06
+ 0.000000038 6.813000000000e-06
+ 0.000000039 7.175400000000e-06
+ 0.000000040 7.524400000000e-06
+ 0.000000041 7.859900000000e-06
+ 0.000000042 8.182100000000e-06
+ 0.000000043 8.491100000000e-06
+ 0.000000044 8.787300000000e-06
+ 0.000000045 9.070900000000e-06
+ 0.000000046 9.342300000000e-06
+ 0.000000047 9.602000000000e-06
+ 0.000000048 9.850200000000e-06
+ 0.000000049 1.008760000000e-05
+ 0.000000050 1.031440000000e-05
+ 0.000000051 1.053120000000e-05
+ 0.000000052 1.073830000000e-05
+ 0.000000053 1.093630000000e-05
+ 0.000000054 1.112540000000e-05
+ 0.000000055 1.130630000000e-05
+ 0.000000056 1.147910000000e-05
+ 0.000000057 1.164430000000e-05
+ 0.000000058 1.180230000000e-05
+ 0.000000059 1.195340000000e-05
+ 0.000000060 1.209800000000e-05
+ 0.000000061 1.223640000000e-05
+ 0.000000062 1.236890000000e-05
+ 0.000000063 1.249570000000e-05
+ 0.000000064 1.261720000000e-05
+ 0.000000065 1.273360000000e-05
+ 0.000000066 1.284510000000e-05
+ 0.000000067 1.295210000000e-05
+ 0.000000068 1.305470000000e-05
+ 0.000000069 1.315310000000e-05
+ 0.000000070 1.324760000000e-05
+ 0.000000071 1.333830000000e-05
+ 0.000000072 1.342540000000e-05
+ 0.000000073 1.350900000000e-05
+ 0.000000074 1.358940000000e-05
+ 0.000000075 1.366670000000e-05
+ 0.000000076 1.374110000000e-05
+ 0.000000077 1.381250000000e-05
+ 0.000000078 1.388130000000e-05
+ 0.000000079 1.394760000000e-05
)

I_PRED_VD0.06 0 id_pred_vd0.06 PWL(
+ 0.000000000 2.511506735914e-10
+ 0.000000001 3.655796465551e-10
+ 0.000000002 5.345861353589e-10
+ 0.000000003 7.829743253751e-10
+ 0.000000004 1.146501560356e-09
+ 0.000000005 1.676932299688e-09
+ 0.000000006 2.449504279411e-09
+ 0.000000007 3.573605624752e-09
+ 0.000000008 5.208061821804e-09
+ 0.000000009 7.582889622881e-09
+ 0.000000010 1.103074623643e-08
+ 0.000000011 1.603267492101e-08
+ 0.000000012 2.328397613383e-08
+ 0.000000013 3.378641622476e-08
+ 0.000000014 4.896995619674e-08
+ 0.000000015 7.083703394528e-08
+ 0.000000016 1.021099569698e-07
+ 0.000000017 1.463373337174e-07
+ 0.000000018 2.079014166156e-07
+ 0.000000019 2.918547852460e-07
+ 0.000000020 4.035554866277e-07
+ 0.000000021 5.481073276314e-07
+ 0.000000022 7.297013689822e-07
+ 0.000000023 9.510032032267e-07
+ 0.000000024 1.212725073856e-06
+ 0.000000025 1.513491224614e-06
+ 0.000000026 1.849984037108e-06
+ 0.000000027 2.217367655248e-06
+ 0.000000028 2.609791554278e-06
+ 0.000000029 3.020970834768e-06
+ 0.000000030 3.444665344432e-06
+ 0.000000031 3.875065594912e-06
+ 0.000000032 4.307022609282e-06
+ 0.000000033 4.736216214951e-06
+ 0.000000034 5.159159190953e-06
+ 0.000000035 5.573164526140e-06
+ 0.000000036 5.976271204418e-06
+ 0.000000037 6.367145979311e-06
+ 0.000000038 6.744912680006e-06
+ 0.000000039 7.109163561836e-06
+ 0.000000040 7.459767221007e-06
+ 0.000000041 7.796786958352e-06
+ 0.000000042 8.120491693262e-06
+ 0.000000043 8.431213209406e-06
+ 0.000000044 8.729373221286e-06
+ 0.000000045 9.015401301440e-06
+ 0.000000046 9.289737499785e-06
+ 0.000000047 9.552805277053e-06
+ 0.000000048 9.805042936932e-06
+ 0.000000049 1.004681456834e-05
+ 0.000000050 1.027851743856e-05
+ 0.000000051 1.050046237651e-05
+ 0.000000052 1.071297941962e-05
+ 0.000000053 1.091634796467e-05
+ 0.000000054 1.111084478907e-05
+ 0.000000055 1.129670214141e-05
+ 0.000000056 1.147417235188e-05
+ 0.000000057 1.164347719168e-05
+ 0.000000058 1.180481660413e-05
+ 0.000000059 1.195842021843e-05
+ 0.000000060 1.210446003824e-05
+ 0.000000061 1.224316132721e-05
+ 0.000000062 1.237466902239e-05
+ 0.000000063 1.249925378943e-05
+ 0.000000064 1.261705270736e-05
+ 0.000000065 1.272827532375e-05
+ 0.000000066 1.283310935833e-05
+ 0.000000067 1.293176261242e-05
+ 0.000000068 1.302444026805e-05
+ 0.000000069 1.311130385147e-05
+ 0.000000070 1.319259259617e-05
+ 0.000000071 1.326848723693e-05
+ 0.000000072 1.333916938165e-05
+ 0.000000073 1.340487040579e-05
+ 0.000000074 1.346574397758e-05
+ 0.000000075 1.352204504656e-05
+ 0.000000076 1.357392029604e-05
+ 0.000000077 1.362157665426e-05
+ 0.000000078 1.366520446027e-05
+ 0.000000079 1.370497047901e-05
)

* Id-Vg curve for Vd = 0.07
VG_VD0.07 vg 0 PWL(
+ 0.000000000 0.010000
+ 0.000000001 0.020000
+ 0.000000002 0.030000
+ 0.000000003 0.040000
+ 0.000000004 0.050000
+ 0.000000005 0.060000
+ 0.000000006 0.070000
+ 0.000000007 0.080000
+ 0.000000008 0.090000
+ 0.000000009 0.100000
+ 0.000000010 0.110000
+ 0.000000011 0.120000
+ 0.000000012 0.130000
+ 0.000000013 0.140000
+ 0.000000014 0.150000
+ 0.000000015 0.160000
+ 0.000000016 0.170000
+ 0.000000017 0.180000
+ 0.000000018 0.190000
+ 0.000000019 0.200000
+ 0.000000020 0.210000
+ 0.000000021 0.220000
+ 0.000000022 0.230000
+ 0.000000023 0.240000
+ 0.000000024 0.250000
+ 0.000000025 0.260000
+ 0.000000026 0.270000
+ 0.000000027 0.280000
+ 0.000000028 0.290000
+ 0.000000029 0.300000
+ 0.000000030 0.310000
+ 0.000000031 0.320000
+ 0.000000032 0.330000
+ 0.000000033 0.340000
+ 0.000000034 0.350000
+ 0.000000035 0.360000
+ 0.000000036 0.370000
+ 0.000000037 0.380000
+ 0.000000038 0.390000
+ 0.000000039 0.400000
+ 0.000000040 0.410000
+ 0.000000041 0.420000
+ 0.000000042 0.430000
+ 0.000000043 0.440000
+ 0.000000044 0.450000
+ 0.000000045 0.460000
+ 0.000000046 0.470000
+ 0.000000047 0.480000
+ 0.000000048 0.490000
+ 0.000000049 0.500000
+ 0.000000050 0.510000
+ 0.000000051 0.520000
+ 0.000000052 0.530000
+ 0.000000053 0.540000
+ 0.000000054 0.550000
+ 0.000000055 0.560000
+ 0.000000056 0.570000
+ 0.000000057 0.580000
+ 0.000000058 0.590000
+ 0.000000059 0.600000
+ 0.000000060 0.610000
+ 0.000000061 0.620000
+ 0.000000062 0.630000
+ 0.000000063 0.640000
+ 0.000000064 0.650000
+ 0.000000065 0.660000
+ 0.000000066 0.670000
+ 0.000000067 0.680000
+ 0.000000068 0.690000
+ 0.000000069 0.700000
+ 0.000000070 0.710000
+ 0.000000071 0.720000
+ 0.000000072 0.730000
+ 0.000000073 0.740000
+ 0.000000074 0.750000
+ 0.000000075 0.760000
+ 0.000000076 0.770000
+ 0.000000077 0.780000
+ 0.000000078 0.790000
+ 0.000000079 0.800000
)

I_ACTUAL_VD0.07 0 id_actual_vd0.07 PWL(
+ 0.000000000 2.644260000000e-10
+ 0.000000001 3.856790000000e-10
+ 0.000000002 5.625190000000e-10
+ 0.000000003 8.204120000000e-10
+ 0.000000004 1.196500000000e-09
+ 0.000000005 1.744800000000e-09
+ 0.000000006 2.544100000000e-09
+ 0.000000007 3.708900000000e-09
+ 0.000000008 5.405800000000e-09
+ 0.000000009 7.876200000000e-09
+ 0.000000010 1.146990000000e-08
+ 0.000000011 1.669080000000e-08
+ 0.000000012 2.426260000000e-08
+ 0.000000013 3.521550000000e-08
+ 0.000000014 5.100170000000e-08
+ 0.000000015 7.363770000000e-08
+ 0.000000016 1.058650000000e-07
+ 0.000000017 1.513050000000e-07
+ 0.000000018 2.145540000000e-07
+ 0.000000019 3.011490000000e-07
+ 0.000000020 4.173120000000e-07
+ 0.000000021 5.694210000000e-07
+ 0.000000022 7.632530000000e-07
+ 0.000000023 1.003100000000e-06
+ 0.000000024 1.291100000000e-06
+ 0.000000025 1.626600000000e-06
+ 0.000000026 2.006400000000e-06
+ 0.000000027 2.424700000000e-06
+ 0.000000028 2.874400000000e-06
+ 0.000000029 3.347500000000e-06
+ 0.000000030 3.836000000000e-06
+ 0.000000031 4.332900000000e-06
+ 0.000000032 4.831800000000e-06
+ 0.000000033 5.327900000000e-06
+ 0.000000034 5.817400000000e-06
+ 0.000000035 6.297300000000e-06
+ 0.000000036 6.765600000000e-06
+ 0.000000037 7.220800000000e-06
+ 0.000000038 7.661900000000e-06
+ 0.000000039 8.088300000000e-06
+ 0.000000040 8.499600000000e-06
+ 0.000000041 8.895700000000e-06
+ 0.000000042 9.276500000000e-06
+ 0.000000043 9.642300000000e-06
+ 0.000000044 9.993300000000e-06
+ 0.000000045 1.032970000000e-05
+ 0.000000046 1.065200000000e-05
+ 0.000000047 1.096060000000e-05
+ 0.000000048 1.125590000000e-05
+ 0.000000049 1.153840000000e-05
+ 0.000000050 1.180860000000e-05
+ 0.000000051 1.206700000000e-05
+ 0.000000052 1.231410000000e-05
+ 0.000000053 1.255020000000e-05
+ 0.000000054 1.277610000000e-05
+ 0.000000055 1.299200000000e-05
+ 0.000000056 1.319850000000e-05
+ 0.000000057 1.339590000000e-05
+ 0.000000058 1.358480000000e-05
+ 0.000000059 1.376550000000e-05
+ 0.000000060 1.393840000000e-05
+ 0.000000061 1.410390000000e-05
+ 0.000000062 1.426240000000e-05
+ 0.000000063 1.441420000000e-05
+ 0.000000064 1.455950000000e-05
+ 0.000000065 1.469880000000e-05
+ 0.000000066 1.483240000000e-05
+ 0.000000067 1.496040000000e-05
+ 0.000000068 1.508310000000e-05
+ 0.000000069 1.520090000000e-05
+ 0.000000070 1.531400000000e-05
+ 0.000000071 1.542250000000e-05
+ 0.000000072 1.552670000000e-05
+ 0.000000073 1.562680000000e-05
+ 0.000000074 1.572300000000e-05
+ 0.000000075 1.581540000000e-05
+ 0.000000076 1.590430000000e-05
+ 0.000000077 1.598980000000e-05
+ 0.000000078 1.607200000000e-05
+ 0.000000079 1.615110000000e-05
)

I_PRED_VD0.07 0 id_pred_vd0.07 PWL(
+ 0.000000000 2.633494533555e-10
+ 0.000000001 3.825738437158e-10
+ 0.000000002 5.585687734566e-10
+ 0.000000003 8.171192877882e-10
+ 0.000000004 1.195418430910e-09
+ 0.000000005 1.747377211814e-09
+ 0.000000006 2.551454514332e-09
+ 0.000000007 3.721830488246e-09
+ 0.000000008 5.424245301811e-09
+ 0.000000009 7.898721321453e-09
+ 0.000000010 1.149206738660e-08
+ 0.000000011 1.670562255640e-08
+ 0.000000012 2.426447622383e-08
+ 0.000000013 3.521495955283e-08
+ 0.000000014 5.105474315314e-08
+ 0.000000015 7.388982112388e-08
+ 0.000000016 1.065985827609e-07
+ 0.000000017 1.529590781502e-07
+ 0.000000018 2.176764655815e-07
+ 0.000000019 3.062376254093e-07
+ 0.000000020 4.245464970154e-07
+ 0.000000021 5.783459801023e-07
+ 0.000000022 7.725201703579e-07
+ 0.000000023 1.010416999634e-06
+ 0.000000024 1.293344266742e-06
+ 0.000000025 1.620377115614e-06
+ 0.000000026 1.988452131627e-06
+ 0.000000027 2.392755377514e-06
+ 0.000000028 2.827268253895e-06
+ 0.000000029 3.285329657956e-06
+ 0.000000030 3.760185027204e-06
+ 0.000000031 4.245406271366e-06
+ 0.000000032 4.735198890558e-06
+ 0.000000033 5.224554261076e-06
+ 0.000000034 5.709332908737e-06
+ 0.000000035 6.186244136188e-06
+ 0.000000036 6.652783122263e-06
+ 0.000000037 7.107121418812e-06
+ 0.000000038 7.548015273642e-06
+ 0.000000039 7.974672698765e-06
+ 0.000000040 8.386695408262e-06
+ 0.000000041 8.783935190877e-06
+ 0.000000042 9.166457748506e-06
+ 0.000000043 9.534508571960e-06
+ 0.000000044 9.888352506096e-06
+ 0.000000045 1.022838987410e-05
+ 0.000000046 1.055498636561e-05
+ 0.000000047 1.086859221687e-05
+ 0.000000048 1.116956089390e-05
+ 0.000000049 1.145832429756e-05
+ 0.000000050 1.173523080070e-05
+ 0.000000051 1.200064201839e-05
+ 0.000000052 1.225489817443e-05
+ 0.000000053 1.249832013855e-05
+ 0.000000054 1.273117377423e-05
+ 0.000000055 1.295377893257e-05
+ 0.000000056 1.316638212302e-05
+ 0.000000057 1.336925939540e-05
+ 0.000000058 1.356264605420e-05
+ 0.000000059 1.374678962748e-05
+ 0.000000060 1.392190402839e-05
+ 0.000000061 1.408826836268e-05
+ 0.000000062 1.424610061804e-05
+ 0.000000063 1.439560655854e-05
+ 0.000000064 1.453708566260e-05
+ 0.000000065 1.467068970669e-05
+ 0.000000066 1.479671409470e-05
+ 0.000000067 1.491536866524e-05
+ 0.000000068 1.502690502093e-05
+ 0.000000069 1.513155235443e-05
+ 0.000000070 1.522954902612e-05
+ 0.000000071 1.532113543362e-05
+ 0.000000072 1.540652854601e-05
+ 0.000000073 1.548602987896e-05
+ 0.000000074 1.555976676173e-05
+ 0.000000075 1.562808654853e-05
+ 0.000000076 1.569113897858e-05
+ 0.000000077 1.574921741849e-05
+ 0.000000078 1.580249198014e-05
+ 0.000000079 1.585118370713e-05
)

* Id-Vg curve for Vd = 0.08
VG_VD0.08 vg 0 PWL(
+ 0.000000000 0.010000
+ 0.000000001 0.020000
+ 0.000000002 0.030000
+ 0.000000003 0.040000
+ 0.000000004 0.050000
+ 0.000000005 0.060000
+ 0.000000006 0.070000
+ 0.000000007 0.080000
+ 0.000000008 0.090000
+ 0.000000009 0.100000
+ 0.000000010 0.110000
+ 0.000000011 0.120000
+ 0.000000012 0.130000
+ 0.000000013 0.140000
+ 0.000000014 0.150000
+ 0.000000015 0.160000
+ 0.000000016 0.170000
+ 0.000000017 0.180000
+ 0.000000018 0.190000
+ 0.000000019 0.200000
+ 0.000000020 0.210000
+ 0.000000021 0.220000
+ 0.000000022 0.230000
+ 0.000000023 0.240000
+ 0.000000024 0.250000
+ 0.000000025 0.260000
+ 0.000000026 0.270000
+ 0.000000027 0.280000
+ 0.000000028 0.290000
+ 0.000000029 0.300000
+ 0.000000030 0.310000
+ 0.000000031 0.320000
+ 0.000000032 0.330000
+ 0.000000033 0.340000
+ 0.000000034 0.350000
+ 0.000000035 0.360000
+ 0.000000036 0.370000
+ 0.000000037 0.380000
+ 0.000000038 0.390000
+ 0.000000039 0.400000
+ 0.000000040 0.410000
+ 0.000000041 0.420000
+ 0.000000042 0.430000
+ 0.000000043 0.440000
+ 0.000000044 0.450000
+ 0.000000045 0.460000
+ 0.000000046 0.470000
+ 0.000000047 0.480000
+ 0.000000048 0.490000
+ 0.000000049 0.500000
+ 0.000000050 0.510000
+ 0.000000051 0.520000
+ 0.000000052 0.530000
+ 0.000000053 0.540000
+ 0.000000054 0.550000
+ 0.000000055 0.560000
+ 0.000000056 0.570000
+ 0.000000057 0.580000
+ 0.000000058 0.590000
+ 0.000000059 0.600000
+ 0.000000060 0.610000
+ 0.000000061 0.620000
+ 0.000000062 0.630000
+ 0.000000063 0.640000
+ 0.000000064 0.650000
+ 0.000000065 0.660000
+ 0.000000066 0.670000
+ 0.000000067 0.680000
+ 0.000000068 0.690000
+ 0.000000069 0.700000
+ 0.000000070 0.710000
+ 0.000000071 0.720000
+ 0.000000072 0.730000
+ 0.000000073 0.740000
+ 0.000000074 0.750000
+ 0.000000075 0.760000
+ 0.000000076 0.770000
+ 0.000000077 0.780000
+ 0.000000078 0.790000
+ 0.000000079 0.800000
)

I_ACTUAL_VD0.08 0 id_actual_vd0.08 PWL(
+ 0.000000000 2.733620000000e-10
+ 0.000000001 3.986810000000e-10
+ 0.000000002 5.814360000000e-10
+ 0.000000003 8.479340000000e-10
+ 0.000000004 1.236500000000e-09
+ 0.000000005 1.803000000000e-09
+ 0.000000006 2.628800000000e-09
+ 0.000000007 3.832200000000e-09
+ 0.000000008 5.585100000000e-09
+ 0.000000009 8.137000000000e-09
+ 0.000000010 1.184890000000e-08
+ 0.000000011 1.724170000000e-08
+ 0.000000012 2.506280000000e-08
+ 0.000000013 3.637710000000e-08
+ 0.000000014 5.268640000000e-08
+ 0.000000015 7.607750000000e-08
+ 0.000000016 1.093920000000e-07
+ 0.000000017 1.563890000000e-07
+ 0.000000018 2.218590000000e-07
+ 0.000000019 3.115980000000e-07
+ 0.000000020 4.321700000000e-07
+ 0.000000021 5.904030000000e-07
+ 0.000000022 7.926320000000e-07
+ 0.000000023 1.043800000000e-06
+ 0.000000024 1.346900000000e-06
+ 0.000000025 1.702100000000e-06
+ 0.000000026 2.106900000000e-06
+ 0.000000027 2.556400000000e-06
+ 0.000000028 3.043600000000e-06
+ 0.000000029 3.560600000000e-06
+ 0.000000030 4.099000000000e-06
+ 0.000000031 4.650600000000e-06
+ 0.000000032 5.208500000000e-06
+ 0.000000033 5.766500000000e-06
+ 0.000000034 6.319800000000e-06
+ 0.000000035 6.864700000000e-06
+ 0.000000036 7.398400000000e-06
+ 0.000000037 7.918700000000e-06
+ 0.000000038 8.424300000000e-06
+ 0.000000039 8.914200000000e-06
+ 0.000000040 9.387800000000e-06
+ 0.000000041 9.844600000000e-06
+ 0.000000042 1.028470000000e-05
+ 0.000000043 1.070800000000e-05
+ 0.000000044 1.111460000000e-05
+ 0.000000045 1.150500000000e-05
+ 0.000000046 1.187930000000e-05
+ 0.000000047 1.223810000000e-05
+ 0.000000048 1.258180000000e-05
+ 0.000000049 1.291080000000e-05
+ 0.000000050 1.322580000000e-05
+ 0.000000051 1.352720000000e-05
+ 0.000000052 1.381560000000e-05
+ 0.000000053 1.409140000000e-05
+ 0.000000054 1.435530000000e-05
+ 0.000000055 1.460770000000e-05
+ 0.000000056 1.484920000000e-05
+ 0.000000057 1.508020000000e-05
+ 0.000000058 1.530130000000e-05
+ 0.000000059 1.551280000000e-05
+ 0.000000060 1.571530000000e-05
+ 0.000000061 1.590920000000e-05
+ 0.000000062 1.609480000000e-05
+ 0.000000063 1.627260000000e-05
+ 0.000000064 1.644300000000e-05
+ 0.000000065 1.660620000000e-05
+ 0.000000066 1.676270000000e-05
+ 0.000000067 1.691270000000e-05
+ 0.000000068 1.705660000000e-05
+ 0.000000069 1.719470000000e-05
+ 0.000000070 1.732710000000e-05
+ 0.000000071 1.745430000000e-05
+ 0.000000072 1.757640000000e-05
+ 0.000000073 1.769370000000e-05
+ 0.000000074 1.780640000000e-05
+ 0.000000075 1.791470000000e-05
+ 0.000000076 1.801870000000e-05
+ 0.000000077 1.811880000000e-05
+ 0.000000078 1.821510000000e-05
+ 0.000000079 1.830770000000e-05
)

I_PRED_VD0.08 0 id_pred_vd0.08 PWL(
+ 0.000000000 2.732483928014e-10
+ 0.000000001 3.962265537893e-10
+ 0.000000002 5.776620071174e-10
+ 0.000000003 8.440661503073e-10
+ 0.000000004 1.233691904190e-09
+ 0.000000005 1.802077918001e-09
+ 0.000000006 2.630122253322e-09
+ 0.000000007 3.835617974346e-09
+ 0.000000008 5.589569127551e-09
+ 0.000000009 8.139339229274e-09
+ 0.000000010 1.184209281746e-08
+ 0.000000011 1.721363787510e-08
+ 0.000000012 2.499994707250e-08
+ 0.000000013 3.627864316513e-08
+ 0.000000014 5.259542376734e-08
+ 0.000000015 7.613099114678e-08
+ 0.000000016 1.098793109122e-07
+ 0.000000017 1.577928196639e-07
+ 0.000000018 2.248303098895e-07
+ 0.000000019 3.168278999510e-07
+ 0.000000020 4.401463957038e-07
+ 0.000000021 6.010840661475e-07
+ 0.000000022 8.051475015236e-07
+ 0.000000023 1.056331748259e-06
+ 0.000000024 1.356550783385e-06
+ 0.000000025 1.705380127532e-06
+ 0.000000026 2.100105484715e-06
+ 0.000000027 2.536080137361e-06
+ 0.000000028 3.007243794855e-06
+ 0.000000029 3.506719367579e-06
+ 0.000000030 4.027392715216e-06
+ 0.000000031 4.562345857266e-06
+ 0.000000032 5.105215823278e-06
+ 0.000000033 5.650414386764e-06
+ 0.000000034 6.193214212544e-06
+ 0.000000035 6.729720043950e-06
+ 0.000000036 7.256902172230e-06
+ 0.000000037 7.772432873026e-06
+ 0.000000038 8.274642750621e-06
+ 0.000000039 8.762364741415e-06
+ 0.000000040 9.234870085493e-06
+ 0.000000041 9.691776940599e-06
+ 0.000000042 1.013291068375e-05
+ 0.000000043 1.055830740370e-05
+ 0.000000044 1.096818596125e-05
+ 0.000000045 1.136274659075e-05
+ 0.000000046 1.174232689664e-05
+ 0.000000047 1.210729475133e-05
+ 0.000000048 1.245797728188e-05
+ 0.000000049 1.279478077777e-05
+ 0.000000050 1.311803935096e-05
+ 0.000000051 1.342811272480e-05
+ 0.000000052 1.372536877170e-05
+ 0.000000053 1.401007291861e-05
+ 0.000000054 1.428260933608e-05
+ 0.000000055 1.454325392842e-05
+ 0.000000056 1.479228143580e-05
+ 0.000000057 1.503001200035e-05
+ 0.000000058 1.525667263195e-05
+ 0.000000059 1.547260791995e-05
+ 0.000000060 1.567804836668e-05
+ 0.000000061 1.587329781614e-05
+ 0.000000062 1.605861471035e-05
+ 0.000000063 1.623423187993e-05
+ 0.000000064 1.640047412366e-05
+ 0.000000065 1.655759755522e-05
+ 0.000000066 1.670588389970e-05
+ 0.000000067 1.684556598775e-05
+ 0.000000068 1.697700703517e-05
+ 0.000000069 1.710038864985e-05
+ 0.000000070 1.721607754007e-05
+ 0.000000071 1.732428558171e-05
+ 0.000000072 1.742531196214e-05
+ 0.000000073 1.751944073476e-05
+ 0.000000074 1.760693965480e-05
+ 0.000000075 1.768811140209e-05
+ 0.000000076 1.776316668838e-05
+ 0.000000077 1.783241750672e-05
+ 0.000000078 1.789610134438e-05
+ 0.000000079 1.795449759811e-05
)

* Id-Vg curve for Vd = 0.09
VG_VD0.09 vg 0 PWL(
+ 0.000000000 0.010000
+ 0.000000001 0.020000
+ 0.000000002 0.030000
+ 0.000000003 0.040000
+ 0.000000004 0.050000
+ 0.000000005 0.060000
+ 0.000000006 0.070000
+ 0.000000007 0.080000
+ 0.000000008 0.090000
+ 0.000000009 0.100000
+ 0.000000010 0.110000
+ 0.000000011 0.120000
+ 0.000000012 0.130000
+ 0.000000013 0.140000
+ 0.000000014 0.150000
+ 0.000000015 0.160000
+ 0.000000016 0.170000
+ 0.000000017 0.180000
+ 0.000000018 0.190000
+ 0.000000019 0.200000
+ 0.000000020 0.210000
+ 0.000000021 0.220000
+ 0.000000022 0.230000
+ 0.000000023 0.240000
+ 0.000000024 0.250000
+ 0.000000025 0.260000
+ 0.000000026 0.270000
+ 0.000000027 0.280000
+ 0.000000028 0.290000
+ 0.000000029 0.300000
+ 0.000000030 0.310000
+ 0.000000031 0.320000
+ 0.000000032 0.330000
+ 0.000000033 0.340000
+ 0.000000034 0.350000
+ 0.000000035 0.360000
+ 0.000000036 0.370000
+ 0.000000037 0.380000
+ 0.000000038 0.390000
+ 0.000000039 0.400000
+ 0.000000040 0.410000
+ 0.000000041 0.420000
+ 0.000000042 0.430000
+ 0.000000043 0.440000
+ 0.000000044 0.450000
+ 0.000000045 0.460000
+ 0.000000046 0.470000
+ 0.000000047 0.480000
+ 0.000000048 0.490000
+ 0.000000049 0.500000
+ 0.000000050 0.510000
+ 0.000000051 0.520000
+ 0.000000052 0.530000
+ 0.000000053 0.540000
+ 0.000000054 0.550000
+ 0.000000055 0.560000
+ 0.000000056 0.570000
+ 0.000000057 0.580000
+ 0.000000058 0.590000
+ 0.000000059 0.600000
+ 0.000000060 0.610000
+ 0.000000061 0.620000
+ 0.000000062 0.630000
+ 0.000000063 0.640000
+ 0.000000064 0.650000
+ 0.000000065 0.660000
+ 0.000000066 0.670000
+ 0.000000067 0.680000
+ 0.000000068 0.690000
+ 0.000000069 0.700000
+ 0.000000070 0.710000
+ 0.000000071 0.720000
+ 0.000000072 0.730000
+ 0.000000073 0.740000
+ 0.000000074 0.750000
+ 0.000000075 0.760000
+ 0.000000076 0.770000
+ 0.000000077 0.780000
+ 0.000000078 0.790000
+ 0.000000079 0.800000
)

I_ACTUAL_VD0.09 0 id_actual_vd0.09 PWL(
+ 0.000000000 2.806440000000e-10
+ 0.000000001 4.092660000000e-10
+ 0.000000002 5.968220000000e-10
+ 0.000000003 8.702980000000e-10
+ 0.000000004 1.269000000000e-09
+ 0.000000005 1.850300000000e-09
+ 0.000000006 2.697500000000e-09
+ 0.000000007 3.931900000000e-09
+ 0.000000008 5.730000000000e-09
+ 0.000000009 8.347500000000e-09
+ 0.000000010 1.215470000000e-08
+ 0.000000011 1.768560000000e-08
+ 0.000000012 2.570680000000e-08
+ 0.000000013 3.731070000000e-08
+ 0.000000014 5.403840000000e-08
+ 0.000000015 7.803240000000e-08
+ 0.000000016 1.122130000000e-07
+ 0.000000017 1.604480000000e-07
+ 0.000000018 2.276780000000e-07
+ 0.000000019 3.199010000000e-07
+ 0.000000020 4.439490000000e-07
+ 0.000000021 6.069940000000e-07
+ 0.000000022 8.158120000000e-07
+ 0.000000023 1.075900000000e-06
+ 0.000000024 1.390900000000e-06
+ 0.000000025 1.761600000000e-06
+ 0.000000026 2.186400000000e-06
+ 0.000000027 2.661000000000e-06
+ 0.000000028 3.179000000000e-06
+ 0.000000029 3.732700000000e-06
+ 0.000000030 4.313500000000e-06
+ 0.000000031 4.913100000000e-06
+ 0.000000032 5.523500000000e-06
+ 0.000000033 6.137900000000e-06
+ 0.000000034 6.750400000000e-06
+ 0.000000035 7.356300000000e-06
+ 0.000000036 7.952200000000e-06
+ 0.000000037 8.535200000000e-06
+ 0.000000038 9.103500000000e-06
+ 0.000000039 9.655600000000e-06
+ 0.000000040 1.019060000000e-05
+ 0.000000041 1.070780000000e-05
+ 0.000000042 1.120700000000e-05
+ 0.000000043 1.168790000000e-05
+ 0.000000044 1.215080000000e-05
+ 0.000000045 1.259560000000e-05
+ 0.000000046 1.302290000000e-05
+ 0.000000047 1.343280000000e-05
+ 0.000000048 1.382590000000e-05
+ 0.000000049 1.420270000000e-05
+ 0.000000050 1.456360000000e-05
+ 0.000000051 1.490930000000e-05
+ 0.000000052 1.524030000000e-05
+ 0.000000053 1.555710000000e-05
+ 0.000000054 1.586030000000e-05
+ 0.000000055 1.615050000000e-05
+ 0.000000056 1.642830000000e-05
+ 0.000000057 1.669420000000e-05
+ 0.000000058 1.694870000000e-05
+ 0.000000059 1.719230000000e-05
+ 0.000000060 1.742560000000e-05
+ 0.000000061 1.764890000000e-05
+ 0.000000062 1.786290000000e-05
+ 0.000000063 1.806780000000e-05
+ 0.000000064 1.826420000000e-05
+ 0.000000065 1.845240000000e-05
+ 0.000000066 1.863290000000e-05
+ 0.000000067 1.880590000000e-05
+ 0.000000068 1.897180000000e-05
+ 0.000000069 1.913100000000e-05
+ 0.000000070 1.928380000000e-05
+ 0.000000071 1.943040000000e-05
+ 0.000000072 1.957120000000e-05
+ 0.000000073 1.970640000000e-05
+ 0.000000074 1.983630000000e-05
+ 0.000000075 1.996110000000e-05
+ 0.000000076 2.008100000000e-05
+ 0.000000077 2.019630000000e-05
+ 0.000000078 2.030720000000e-05
+ 0.000000079 2.041390000000e-05
)

I_PRED_VD0.09 0 id_pred_vd0.09 PWL(
+ 0.000000000 2.815800392852e-10
+ 0.000000001 4.076364046313e-10
+ 0.000000002 5.935148772451e-10
+ 0.000000003 8.662843242746e-10
+ 0.000000004 1.265036475573e-09
+ 0.000000005 1.846566899388e-09
+ 0.000000006 2.693707017443e-09
+ 0.000000007 3.927132858905e-09
+ 0.000000008 5.721949634108e-09
+ 0.000000009 8.331265277661e-09
+ 0.000000010 1.211989740568e-08
+ 0.000000011 1.761427739666e-08
+ 0.000000012 2.557515159651e-08
+ 0.000000013 3.710213064778e-08
+ 0.000000014 5.377482011681e-08
+ 0.000000015 7.782760803821e-08
+ 0.000000016 1.123392758018e-07
+ 0.000000017 1.613942515633e-07
+ 0.000000018 2.301471704413e-07
+ 0.000000019 3.247158906561e-07
+ 0.000000020 4.518352898231e-07
+ 0.000000021 6.182780316522e-07
+ 0.000000022 8.301041543746e-07
+ 0.000000023 1.091902831831e-06
+ 0.000000024 1.406178034813e-06
+ 0.000000025 1.773029871401e-06
+ 0.000000026 2.190153481934e-06
+ 0.000000027 2.653153278516e-06
+ 0.000000028 3.156062557537e-06
+ 0.000000029 3.691908787005e-06
+ 0.000000030 4.253350271028e-06
+ 0.000000031 4.833094753849e-06
+ 0.000000032 5.424353548733e-06
+ 0.000000033 6.021007211530e-06
+ 0.000000034 6.617785620620e-06
+ 0.000000035 7.210285330075e-06
+ 0.000000036 7.794950579409e-06
+ 0.000000037 8.368976050406e-06
+ 0.000000038 8.930241383496e-06
+ 0.000000039 9.477190033067e-06
+ 0.000000040 1.000876181934e-05
+ 0.000000041 1.052426261595e-05
+ 0.000000042 1.102326481487e-05
+ 0.000000043 1.150565381977e-05
+ 0.000000044 1.197134843096e-05
+ 0.000000045 1.242053069291e-05
+ 0.000000046 1.285341670155e-05
+ 0.000000047 1.327022124315e-05
+ 0.000000048 1.367123899399e-05
+ 0.000000049 1.405684059137e-05
+ 0.000000050 1.442729058908e-05
+ 0.000000051 1.478297926951e-05
+ 0.000000052 1.512419868959e-05
+ 0.000000053 1.545129198348e-05
+ 0.000000054 1.576459442731e-05
+ 0.000000055 1.606436664588e-05
+ 0.000000056 1.635095963138e-05
+ 0.000000057 1.662467591814e-05
+ 0.000000058 1.688583244686e-05
+ 0.000000059 1.713474353892e-05
+ 0.000000060 1.737165934173e-05
+ 0.000000061 1.759692691849e-05
+ 0.000000062 1.781084094546e-05
+ 0.000000063 1.801371050533e-05
+ 0.000000064 1.820584599045e-05
+ 0.000000065 1.838754207711e-05
+ 0.000000066 1.855911832536e-05
+ 0.000000067 1.872091917903e-05
+ 0.000000068 1.887325634016e-05
+ 0.000000069 1.901640091091e-05
+ 0.000000070 1.915071305120e-05
+ 0.000000071 1.927648481796e-05
+ 0.000000072 1.939409208717e-05
+ 0.000000073 1.950374833541e-05
+ 0.000000074 1.960590670933e-05
+ 0.000000075 1.970074532437e-05
+ 0.000000076 1.978864398552e-05
+ 0.000000077 1.986990260775e-05
+ 0.000000078 1.994479884161e-05
+ 0.000000079 2.001362081501e-05
)

* Id-Vg curve for Vd = 0.1
VG_VD0.10 vg 0 PWL(
+ 0.000000000 0.010000
+ 0.000000001 0.020000
+ 0.000000002 0.030000
+ 0.000000003 0.040000
+ 0.000000004 0.050000
+ 0.000000005 0.060000
+ 0.000000006 0.070000
+ 0.000000007 0.080000
+ 0.000000008 0.090000
+ 0.000000009 0.100000
+ 0.000000010 0.110000
+ 0.000000011 0.120000
+ 0.000000012 0.130000
+ 0.000000013 0.140000
+ 0.000000014 0.150000
+ 0.000000015 0.160000
+ 0.000000016 0.170000
+ 0.000000017 0.180000
+ 0.000000018 0.190000
+ 0.000000019 0.200000
+ 0.000000020 0.210000
+ 0.000000021 0.220000
+ 0.000000022 0.230000
+ 0.000000023 0.240000
+ 0.000000024 0.250000
+ 0.000000025 0.260000
+ 0.000000026 0.270000
+ 0.000000027 0.280000
+ 0.000000028 0.290000
+ 0.000000029 0.300000
+ 0.000000030 0.310000
+ 0.000000031 0.320000
+ 0.000000032 0.330000
+ 0.000000033 0.340000
+ 0.000000034 0.350000
+ 0.000000035 0.360000
+ 0.000000036 0.370000
+ 0.000000037 0.380000
+ 0.000000038 0.390000
+ 0.000000039 0.400000
+ 0.000000040 0.410000
+ 0.000000041 0.420000
+ 0.000000042 0.430000
+ 0.000000043 0.440000
+ 0.000000044 0.450000
+ 0.000000045 0.460000
+ 0.000000046 0.470000
+ 0.000000047 0.480000
+ 0.000000048 0.490000
+ 0.000000049 0.500000
+ 0.000000050 0.510000
+ 0.000000051 0.520000
+ 0.000000052 0.530000
+ 0.000000053 0.540000
+ 0.000000054 0.550000
+ 0.000000055 0.560000
+ 0.000000056 0.570000
+ 0.000000057 0.580000
+ 0.000000058 0.590000
+ 0.000000059 0.600000
+ 0.000000060 0.610000
+ 0.000000061 0.620000
+ 0.000000062 0.630000
+ 0.000000063 0.640000
+ 0.000000064 0.650000
+ 0.000000065 0.660000
+ 0.000000066 0.670000
+ 0.000000067 0.680000
+ 0.000000068 0.690000
+ 0.000000069 0.700000
+ 0.000000070 0.710000
+ 0.000000071 0.720000
+ 0.000000072 0.730000
+ 0.000000073 0.740000
+ 0.000000074 0.750000
+ 0.000000075 0.760000
+ 0.000000076 0.770000
+ 0.000000077 0.780000
+ 0.000000078 0.790000
+ 0.000000079 0.800000
)

I_ACTUAL_VD0.10 0 id_actual_vd0.10 PWL(
+ 0.000000000 2.868030000000e-10
+ 0.000000001 4.182090000000e-10
+ 0.000000002 6.098080000000e-10
+ 0.000000003 8.891530000000e-10
+ 0.000000004 1.296400000000e-09
+ 0.000000005 1.890000000000e-09
+ 0.000000006 2.755200000000e-09
+ 0.000000007 4.015700000000e-09
+ 0.000000008 5.851500000000e-09
+ 0.000000009 8.523800000000e-09
+ 0.000000010 1.241040000000e-08
+ 0.000000011 1.805630000000e-08
+ 0.000000012 2.624390000000e-08
+ 0.000000013 3.808810000000e-08
+ 0.000000014 5.516210000000e-08
+ 0.000000015 7.965400000000e-08
+ 0.000000016 1.145470000000e-07
+ 0.000000017 1.637980000000e-07
+ 0.000000018 2.324640000000e-07
+ 0.000000019 3.267040000000e-07
+ 0.000000020 4.535590000000e-07
+ 0.000000021 6.204690000000e-07
+ 0.000000022 8.345510000000e-07
+ 0.000000023 1.101800000000e-06
+ 0.000000024 1.426100000000e-06
+ 0.000000025 1.809200000000e-06
+ 0.000000026 2.249900000000e-06
+ 0.000000027 2.744700000000e-06
+ 0.000000028 3.287800000000e-06
+ 0.000000029 3.871800000000e-06
+ 0.000000030 4.488500000000e-06
+ 0.000000031 5.129300000000e-06
+ 0.000000032 5.785900000000e-06
+ 0.000000033 6.450700000000e-06
+ 0.000000034 7.117000000000e-06
+ 0.000000035 7.779500000000e-06
+ 0.000000036 8.433700000000e-06
+ 0.000000037 9.076200000000e-06
+ 0.000000038 9.704600000000e-06
+ 0.000000039 1.031680000000e-05
+ 0.000000040 1.091160000000e-05
+ 0.000000041 1.148810000000e-05
+ 0.000000042 1.204560000000e-05
+ 0.000000043 1.258380000000e-05
+ 0.000000044 1.310270000000e-05
+ 0.000000045 1.360230000000e-05
+ 0.000000046 1.408280000000e-05
+ 0.000000047 1.454450000000e-05
+ 0.000000048 1.498780000000e-05
+ 0.000000049 1.541310000000e-05
+ 0.000000050 1.582100000000e-05
+ 0.000000051 1.621200000000e-05
+ 0.000000052 1.658660000000e-05
+ 0.000000053 1.694560000000e-05
+ 0.000000054 1.728930000000e-05
+ 0.000000055 1.761850000000e-05
+ 0.000000056 1.793380000000e-05
+ 0.000000057 1.823570000000e-05
+ 0.000000058 1.852480000000e-05
+ 0.000000059 1.880170000000e-05
+ 0.000000060 1.906680000000e-05
+ 0.000000061 1.932080000000e-05
+ 0.000000062 1.956420000000e-05
+ 0.000000063 1.979730000000e-05
+ 0.000000064 2.002080000000e-05
+ 0.000000065 2.023500000000e-05
+ 0.000000066 2.044030000000e-05
+ 0.000000067 2.063720000000e-05
+ 0.000000068 2.082610000000e-05
+ 0.000000069 2.100730000000e-05
+ 0.000000070 2.118120000000e-05
+ 0.000000071 2.134810000000e-05
+ 0.000000072 2.150830000000e-05
+ 0.000000073 2.166220000000e-05
+ 0.000000074 2.180990000000e-05
+ 0.000000075 2.195190000000e-05
+ 0.000000076 2.208840000000e-05
+ 0.000000077 2.221950000000e-05
+ 0.000000078 2.234560000000e-05
+ 0.000000079 2.246680000000e-05
)

I_PRED_VD0.10 0 id_pred_vd0.10 PWL(
+ 0.000000000 2.888212113916e-10
+ 0.000000001 4.175175760679e-10
+ 0.000000002 6.071995350965e-10
+ 0.000000003 8.853931809938e-10
+ 0.000000004 1.291863949149e-09
+ 0.000000005 1.884461120483e-09
+ 0.000000006 2.747617777743e-09
+ 0.000000007 4.004414932979e-09
+ 0.000000008 5.833383909248e-09
+ 0.000000009 8.492235537005e-09
+ 0.000000010 1.235191149362e-08
+ 0.000000011 1.794673067934e-08
+ 0.000000012 2.604829489883e-08
+ 0.000000013 3.777169581554e-08
+ 0.000000014 5.472063548950e-08
+ 0.000000015 7.916808044683e-08
+ 0.000000016 1.142550900113e-07
+ 0.000000017 1.641640210437e-07
+ 0.000000018 2.342020252399e-07
+ 0.000000019 3.307080305603e-07
+ 0.000000020 4.607256414602e-07
+ 0.000000021 6.314235179161e-07
+ 0.000000022 8.493442692270e-07
+ 0.000000023 1.119615080825e-06
+ 0.000000024 1.445293219149e-06
+ 0.000000025 1.826999141485e-06
+ 0.000000026 2.262871385028e-06
+ 0.000000027 2.748838232947e-06
+ 0.000000028 3.279096927145e-06
+ 0.000000029 3.846712206723e-06
+ 0.000000030 4.444202204468e-06
+ 0.000000031 5.064051947556e-06
+ 0.000000032 5.699104804080e-06
+ 0.000000033 6.342821870930e-06
+ 0.000000034 6.989484973019e-06
+ 0.000000035 7.634205394424e-06
+ 0.000000036 8.272930426756e-06
+ 0.000000037 8.902414265322e-06
+ 0.000000038 9.520095773041e-06
+ 0.000000039 1.012405264191e-05
+ 0.000000040 1.071283040801e-05
+ 0.000000041 1.128541116486e-05
+ 0.000000042 1.184113934869e-05
+ 0.000000043 1.237961987499e-05
+ 0.000000044 1.290061627515e-05
+ 0.000000045 1.340410963167e-05
+ 0.000000046 1.389013923472e-05
+ 0.000000047 1.435891317669e-05
+ 0.000000048 1.481056096964e-05
+ 0.000000049 1.524537074147e-05
+ 0.000000050 1.566361024743e-05
+ 0.000000051 1.606558362255e-05
+ 0.000000052 1.645154115977e-05
+ 0.000000053 1.682185393292e-05
+ 0.000000054 1.717678242130e-05
+ 0.000000055 1.751671661623e-05
+ 0.000000056 1.784185878932e-05
+ 0.000000057 1.815264695324e-05
+ 0.000000058 1.844930957304e-05
+ 0.000000059 1.873221481219e-05
+ 0.000000060 1.900169008877e-05
+ 0.000000061 1.925804681377e-05
+ 0.000000062 1.950167352334e-05
+ 0.000000063 1.973283360712e-05
+ 0.000000064 1.995192287723e-05
+ 0.000000065 2.015925274463e-05
+ 0.000000066 2.035520155914e-05
+ 0.000000067 2.054010401480e-05
+ 0.000000068 2.071433409583e-05
+ 0.000000069 2.087821194436e-05
+ 0.000000070 2.103213191731e-05
+ 0.000000071 2.117643889505e-05
+ 0.000000072 2.131151122740e-05
+ 0.000000073 2.143770980183e-05
+ 0.000000074 2.155532274628e-05
+ 0.000000075 2.166475605918e-05
+ 0.000000076 2.176633570343e-05
+ 0.000000077 2.186044730479e-05
+ 0.000000078 2.194732514909e-05
+ 0.000000079 2.202742616646e-05
)

* Id-Vg curve for Vd = 0.11
VG_VD0.11 vg 0 PWL(
+ 0.000000000 0.010000
+ 0.000000001 0.020000
+ 0.000000002 0.030000
+ 0.000000003 0.040000
+ 0.000000004 0.050000
+ 0.000000005 0.060000
+ 0.000000006 0.070000
+ 0.000000007 0.080000
+ 0.000000008 0.090000
+ 0.000000009 0.100000
+ 0.000000010 0.110000
+ 0.000000011 0.120000
+ 0.000000012 0.130000
+ 0.000000013 0.140000
+ 0.000000014 0.150000
+ 0.000000015 0.160000
+ 0.000000016 0.170000
+ 0.000000017 0.180000
+ 0.000000018 0.190000
+ 0.000000019 0.200000
+ 0.000000020 0.210000
+ 0.000000021 0.220000
+ 0.000000022 0.230000
+ 0.000000023 0.240000
+ 0.000000024 0.250000
+ 0.000000025 0.260000
+ 0.000000026 0.270000
+ 0.000000027 0.280000
+ 0.000000028 0.290000
+ 0.000000029 0.300000
+ 0.000000030 0.310000
+ 0.000000031 0.320000
+ 0.000000032 0.330000
+ 0.000000033 0.340000
+ 0.000000034 0.350000
+ 0.000000035 0.360000
+ 0.000000036 0.370000
+ 0.000000037 0.380000
+ 0.000000038 0.390000
+ 0.000000039 0.400000
+ 0.000000040 0.410000
+ 0.000000041 0.420000
+ 0.000000042 0.430000
+ 0.000000043 0.440000
+ 0.000000044 0.450000
+ 0.000000045 0.460000
+ 0.000000046 0.470000
+ 0.000000047 0.480000
+ 0.000000048 0.490000
+ 0.000000049 0.500000
+ 0.000000050 0.510000
+ 0.000000051 0.520000
+ 0.000000052 0.530000
+ 0.000000053 0.540000
+ 0.000000054 0.550000
+ 0.000000055 0.560000
+ 0.000000056 0.570000
+ 0.000000057 0.580000
+ 0.000000058 0.590000
+ 0.000000059 0.600000
+ 0.000000060 0.610000
+ 0.000000061 0.620000
+ 0.000000062 0.630000
+ 0.000000063 0.640000
+ 0.000000064 0.650000
+ 0.000000065 0.660000
+ 0.000000066 0.670000
+ 0.000000067 0.680000
+ 0.000000068 0.690000
+ 0.000000069 0.700000
+ 0.000000070 0.710000
+ 0.000000071 0.720000
+ 0.000000072 0.730000
+ 0.000000073 0.740000
+ 0.000000074 0.750000
+ 0.000000075 0.760000
+ 0.000000076 0.770000
+ 0.000000077 0.780000
+ 0.000000078 0.790000
+ 0.000000079 0.800000
)

I_ACTUAL_VD0.11 0 id_actual_vd0.11 PWL(
+ 0.000000000 2.922060000000e-10
+ 0.000000001 4.260460000000e-10
+ 0.000000002 6.211740000000e-10
+ 0.000000003 9.056390000000e-10
+ 0.000000004 1.320300000000e-09
+ 0.000000005 1.924700000000e-09
+ 0.000000006 2.805400000000e-09
+ 0.000000007 4.088600000000e-09
+ 0.000000008 5.957200000000e-09
+ 0.000000009 8.676900000000e-09
+ 0.000000010 1.263210000000e-08
+ 0.000000011 1.837730000000e-08
+ 0.000000012 2.670820000000e-08
+ 0.000000013 3.875900000000e-08
+ 0.000000014 5.613010000000e-08
+ 0.000000015 8.104760000000e-08
+ 0.000000016 1.165480000000e-07
+ 0.000000017 1.666590000000e-07
+ 0.000000018 2.365380000000e-07
+ 0.000000019 3.324680000000e-07
+ 0.000000020 4.616560000000e-07
+ 0.000000021 6.317530000000e-07
+ 0.000000022 8.501400000000e-07
+ 0.000000023 1.123100000000e-06
+ 0.000000024 1.455100000000e-06
+ 0.000000025 1.848100000000e-06
+ 0.000000026 2.301600000000e-06
+ 0.000000027 2.812600000000e-06
+ 0.000000028 3.376100000000e-06
+ 0.000000029 3.985000000000e-06
+ 0.000000030 4.631600000000e-06
+ 0.000000031 5.307400000000e-06
+ 0.000000032 6.003900000000e-06
+ 0.000000033 6.713100000000e-06
+ 0.000000034 7.427800000000e-06
+ 0.000000035 8.141800000000e-06
+ 0.000000036 8.850000000000e-06
+ 0.000000037 9.548400000000e-06
+ 0.000000038 1.023360000000e-05
+ 0.000000039 1.090330000000e-05
+ 0.000000040 1.155580000000e-05
+ 0.000000041 1.218970000000e-05
+ 0.000000042 1.280430000000e-05
+ 0.000000043 1.339880000000e-05
+ 0.000000044 1.397310000000e-05
+ 0.000000045 1.452710000000e-05
+ 0.000000046 1.506070000000e-05
+ 0.000000047 1.557430000000e-05
+ 0.000000048 1.606810000000e-05
+ 0.000000049 1.654250000000e-05
+ 0.000000050 1.699790000000e-05
+ 0.000000051 1.743500000000e-05
+ 0.000000052 1.785420000000e-05
+ 0.000000053 1.825610000000e-05
+ 0.000000054 1.864140000000e-05
+ 0.000000055 1.901060000000e-05
+ 0.000000056 1.936450000000e-05
+ 0.000000057 1.970340000000e-05
+ 0.000000058 2.002820000000e-05
+ 0.000000059 2.033940000000e-05
+ 0.000000060 2.063750000000e-05
+ 0.000000061 2.092320000000e-05
+ 0.000000062 2.119690000000e-05
+ 0.000000063 2.145930000000e-05
+ 0.000000064 2.171080000000e-05
+ 0.000000065 2.195190000000e-05
+ 0.000000066 2.218300000000e-05
+ 0.000000067 2.240470000000e-05
+ 0.000000068 2.261740000000e-05
+ 0.000000069 2.282140000000e-05
+ 0.000000070 2.301720000000e-05
+ 0.000000071 2.320510000000e-05
+ 0.000000072 2.338550000000e-05
+ 0.000000073 2.355870000000e-05
+ 0.000000074 2.372510000000e-05
+ 0.000000075 2.388490000000e-05
+ 0.000000076 2.403840000000e-05
+ 0.000000077 2.418600000000e-05
+ 0.000000078 2.432780000000e-05
+ 0.000000079 2.446420000000e-05
)

I_PRED_VD0.11 0 id_pred_vd0.11 PWL(
+ 0.000000000 2.952820987723e-10
+ 0.000000001 4.263325914522e-10
+ 0.000000002 6.194069834820e-10
+ 0.000000003 9.024289759907e-10
+ 0.000000004 1.315746560593e-09
+ 0.000000005 1.918109795440e-09
+ 0.000000006 2.795372129327e-09
+ 0.000000007 4.072723029935e-09
+ 0.000000008 5.931702666828e-09
+ 0.000000009 8.634034074362e-09
+ 0.000000010 1.255567831038e-08
+ 0.000000011 1.823736724305e-08
+ 0.000000012 2.645884705998e-08
+ 0.000000013 3.834654052071e-08
+ 0.000000014 5.552159393574e-08
+ 0.000000015 8.028475690480e-08
+ 0.000000016 1.158222596587e-07
+ 0.000000017 1.663911734795e-07
+ 0.000000018 2.374140058237e-07
+ 0.000000019 3.354043860782e-07
+ 0.000000020 4.676530761571e-07
+ 0.000000021 6.416612313842e-07
+ 0.000000022 8.643805631436e-07
+ 0.000000023 1.141416660175e-06
+ 0.000000024 1.476336756241e-06
+ 0.000000025 1.870266150945e-06
+ 0.000000026 2.321784213564e-06
+ 0.000000027 2.827183998306e-06
+ 0.000000028 3.380906236998e-06
+ 0.000000029 3.976120096922e-06
+ 0.000000030 4.605325448210e-06
+ 0.000000031 5.260851685307e-06
+ 0.000000032 5.935293520452e-06
+ 0.000000033 6.621778302360e-06
+ 0.000000034 7.314208924072e-06
+ 0.000000035 8.007257420104e-06
+ 0.000000036 8.696480217623e-06
+ 0.000000037 9.378142058267e-06
+ 0.000000038 1.004934805678e-05
+ 0.000000039 1.070771315426e-05
+ 0.000000040 1.135148137109e-05
+ 0.000000041 1.197927929752e-05
+ 0.000000042 1.259019372810e-05
+ 0.000000043 1.318349233770e-05
+ 0.000000044 1.375882697175e-05
+ 0.000000045 1.431595112081e-05
+ 0.000000046 1.485472152126e-05
+ 0.000000047 1.537515738164e-05
+ 0.000000048 1.587741397088e-05
+ 0.000000049 1.636155851884e-05
+ 0.000000050 1.682783913566e-05
+ 0.000000051 1.727650393150e-05
+ 0.000000052 1.770773858880e-05
+ 0.000000053 1.812189366319e-05
+ 0.000000054 1.851922206697e-05
+ 0.000000055 1.890002953587e-05
+ 0.000000056 1.926462180563e-05
+ 0.000000057 1.961328380276e-05
+ 0.000000058 1.994642530917e-05
+ 0.000000059 2.026430243859e-05
+ 0.000000060 2.056732977508e-05
+ 0.000000061 2.085580345010e-05
+ 0.000000062 2.113008042215e-05
+ 0.000000063 2.139055446605e-05
+ 0.000000064 2.163762255805e-05
+ 0.000000065 2.187160323956e-05
+ 0.000000066 2.209291749750e-05
+ 0.000000067 2.230191908893e-05
+ 0.000000068 2.249903220218e-05
+ 0.000000069 2.268468582770e-05
+ 0.000000070 2.285918089910e-05
+ 0.000000071 2.302298322320e-05
+ 0.000000072 2.317644175491e-05
+ 0.000000073 2.332002230105e-05
+ 0.000000074 2.345404340304e-05
+ 0.000000075 2.357891804422e-05
+ 0.000000076 2.369507681578e-05
+ 0.000000077 2.380283825914e-05
+ 0.000000078 2.390261055552e-05
+ 0.000000079 2.399474426056e-05
)

* Id-Vg curve for Vd = 0.12
VG_VD0.12 vg 0 PWL(
+ 0.000000000 0.010000
+ 0.000000001 0.020000
[...]
+ 0.000000056 6.419386059861e-05
+ 0.000000057 6.446751620388e-05
+ 0.000000058 6.473772780737e-05
+ 0.000000059 6.500440067612e-05
+ 0.000000060 6.526742567075e-05
+ 0.000000061 6.552633392857e-05
+ 0.000000062 6.578088927199e-05
+ 0.000000063 6.603030953556e-05
+ 0.000000064 6.627410075453e-05
+ 0.000000065 6.651154544670e-05
+ 0.000000066 6.674202879367e-05
+ 0.000000067 6.696477648802e-05
+ 0.000000068 6.717905511323e-05
+ 0.000000069 6.738410520484e-05
+ 0.000000070 6.757959985407e-05
+ 0.000000071 6.776460155379e-05
+ 0.000000072 6.793875552830e-05
+ 0.000000073 6.810154911363e-05
+ 0.000000074 6.825258788012e-05
+ 0.000000075 6.839167326689e-05
+ 0.000000076 6.851845966594e-05
+ 0.000000077 6.863298593089e-05
+ 0.000000078 6.873496655317e-05
+ 0.000000079 6.882474990562e-05
)

* Id-Vd curve for Vg = 0.8
VD_VG0.80 vd 0 PWL(
+ 0.000000000 0.010000
+ 0.000000001 0.020000
+ 0.000000002 0.030000
+ 0.000000003 0.040000
+ 0.000000004 0.050000
+ 0.000000005 0.060000
+ 0.000000006 0.070000
+ 0.000000007 0.080000
+ 0.000000008 0.090000
+ 0.000000009 0.100000
+ 0.000000010 0.110000
+ 0.000000011 0.120000
+ 0.000000012 0.130000
+ 0.000000013 0.140000
+ 0.000000014 0.150000
+ 0.000000015 0.160000
+ 0.000000016 0.170000
+ 0.000000017 0.180000
+ 0.000000018 0.190000
+ 0.000000019 0.200000
+ 0.000000020 0.210000
+ 0.000000021 0.220000
+ 0.000000022 0.230000
+ 0.000000023 0.240000
+ 0.000000024 0.250000
+ 0.000000025 0.260000
+ 0.000000026 0.270000
+ 0.000000027 0.280000
+ 0.000000028 0.290000
+ 0.000000029 0.300000
+ 0.000000030 0.310000
+ 0.000000031 0.320000
+ 0.000000032 0.330000
+ 0.000000033 0.340000
+ 0.000000034 0.350000
+ 0.000000035 0.360000
+ 0.000000036 0.370000
+ 0.000000037 0.380000
+ 0.000000038 0.390000
+ 0.000000039 0.400000
+ 0.000000040 0.410000
+ 0.000000041 0.420000
+ 0.000000042 0.430000
+ 0.000000043 0.440000
+ 0.000000044 0.450000
+ 0.000000045 0.460000
+ 0.000000046 0.470000
+ 0.000000047 0.480000
+ 0.000000048 0.490000
+ 0.000000049 0.500000
+ 0.000000050 0.510000
+ 0.000000051 0.520000
+ 0.000000052 0.530000
+ 0.000000053 0.540000
+ 0.000000054 0.550000
+ 0.000000055 0.560000
+ 0.000000056 0.570000
+ 0.000000057 0.580000
+ 0.000000058 0.590000
+ 0.000000059 0.600000
+ 0.000000060 0.610000
+ 0.000000061 0.620000
+ 0.000000062 0.630000
+ 0.000000063 0.640000
+ 0.000000064 0.650000
+ 0.000000065 0.660000
+ 0.000000066 0.670000
+ 0.000000067 0.680000
+ 0.000000068 0.690000
+ 0.000000069 0.700000
+ 0.000000070 0.710000
+ 0.000000071 0.720000
+ 0.000000072 0.730000
+ 0.000000073 0.740000
+ 0.000000074 0.750000
+ 0.000000075 0.760000
+ 0.000000076 0.770000
+ 0.000000077 0.780000
+ 0.000000078 0.790000
+ 0.000000079 0.800000
)

I_ACTUAL_VG0.80 0 id_actual_vg0.80 PWL(
+ 0.000000000 2.383700000000e-06
+ 0.000000001 4.751600000000e-06
+ 0.000000002 7.097700000000e-06
+ 0.000000003 9.416100000000e-06
+ 0.000000004 1.170100000000e-05
+ 0.000000005 1.394760000000e-05
+ 0.000000006 1.615110000000e-05
+ 0.000000007 1.830770000000e-05
+ 0.000000008 2.041390000000e-05
+ 0.000000009 2.246680000000e-05
+ 0.000000010 2.446420000000e-05
+ 0.000000011 2.640400000000e-05
+ 0.000000012 2.828500000000e-05
+ 0.000000013 3.010610000000e-05
+ 0.000000014 3.186650000000e-05
+ 0.000000015 3.356600000000e-05
+ 0.000000016 3.520440000000e-05
+ 0.000000017 3.678200000000e-05
+ 0.000000018 3.829920000000e-05
+ 0.000000019 3.975680000000e-05
+ 0.000000020 4.115560000000e-05
+ 0.000000021 4.249680000000e-05
+ 0.000000022 4.378160000000e-05
+ 0.000000023 4.501150000000e-05
+ 0.000000024 4.618800000000e-05
+ 0.000000025 4.731280000000e-05
+ 0.000000026 4.838770000000e-05
+ 0.000000027 4.941430000000e-05
+ 0.000000028 5.039460000000e-05
+ 0.000000029 5.133050000000e-05
+ 0.000000030 5.222360000000e-05
+ 0.000000031 5.307580000000e-05
+ 0.000000032 5.388890000000e-05
+ 0.000000033 5.466460000000e-05
+ 0.000000034 5.540440000000e-05
+ 0.000000035 5.611000000000e-05
+ 0.000000036 5.678280000000e-05
+ 0.000000037 5.742430000000e-05
+ 0.000000038 5.803600000000e-05
+ 0.000000039 5.861910000000e-05
+ 0.000000040 5.917500000000e-05
+ 0.000000041 5.970500000000e-05
+ 0.000000042 6.021020000000e-05
+ 0.000000043 6.069180000000e-05
+ 0.000000044 6.115100000000e-05
+ 0.000000045 6.158900000000e-05
+ 0.000000046 6.200680000000e-05
+ 0.000000047 6.240550000000e-05
+ 0.000000048 6.278610000000e-05
+ 0.000000049 6.314960000000e-05
+ 0.000000050 6.349690000000e-05
+ 0.000000051 6.382890000000e-05
+ 0.000000052 6.414650000000e-05
+ 0.000000053 6.445060000000e-05
+ 0.000000054 6.474180000000e-05
+ 0.000000055 6.502100000000e-05
+ 0.000000056 6.528880000000e-05
+ 0.000000057 6.554600000000e-05
+ 0.000000058 6.579300000000e-05
+ 0.000000059 6.603070000000e-05
+ 0.000000060 6.625940000000e-05
+ 0.000000061 6.647970000000e-05
+ 0.000000062 6.669210000000e-05
+ 0.000000063 6.689710000000e-05
+ 0.000000064 6.709510000000e-05
+ 0.000000065 6.728650000000e-05
+ 0.000000066 6.747160000000e-05
+ 0.000000067 6.765080000000e-05
+ 0.000000068 6.782450000000e-05
+ 0.000000069 6.799290000000e-05
+ 0.000000070 6.815640000000e-05
+ 0.000000071 6.831520000000e-05
+ 0.000000072 6.846960000000e-05
+ 0.000000073 6.861970000000e-05
+ 0.000000074 6.876590000000e-05
+ 0.000000075 6.890830000000e-05
+ 0.000000076 6.904710000000e-05
+ 0.000000077 6.918250000000e-05
+ 0.000000078 6.931460000000e-05
+ 0.000000079 6.944370000000e-05
)

I_PRED_VG0.80 0 id_pred_vg0.80 PWL(
+ 0.000000000 2.375804906478e-06
+ 0.000000001 4.716831608675e-06
+ 0.000000002 7.021653873380e-06
+ 0.000000003 9.288860601373e-06
+ 0.000000004 1.151707037934e-05
+ 0.000000005 1.370497047901e-05
+ 0.000000006 1.585118370713e-05
+ 0.000000007 1.795449759811e-05
+ 0.000000008 2.001362081501e-05
+ 0.000000009 2.202742616646e-05
+ 0.000000010 2.399474426056e-05
+ 0.000000011 2.591446100269e-05
+ 0.000000012 2.778564012260e-05
+ 0.000000013 2.960725920275e-05
+ 0.000000014 3.137842504657e-05
+ 0.000000015 3.309839870781e-05
+ 0.000000016 3.476648926153e-05
+ 0.000000017 3.638191003120e-05
+ 0.000000018 3.794424555963e-05
+ 0.000000019 3.945305943489e-05
+ 0.000000020 4.090799979167e-05
+ 0.000000021 4.230891208863e-05
+ 0.000000022 4.365565109765e-05
+ 0.000000023 4.494822816923e-05
+ 0.000000024 4.618688035407e-05
+ 0.000000025 4.737184615806e-05
+ 0.000000026 4.850363766309e-05
+ 0.000000027 4.958294623066e-05
+ 0.000000028 5.061037765699e-05
+ 0.000000029 5.158684652997e-05
+ 0.000000030 5.251346156001e-05
+ 0.000000031 5.339147057384e-05
+ 0.000000032 5.422209724202e-05
+ 0.000000033 5.500689730980e-05
+ 0.000000034 5.574755050475e-05
+ 0.000000035 5.644592049066e-05
+ 0.000000036 5.710366225685e-05
+ 0.000000037 5.772306438303e-05
+ 0.000000038 5.830600013724e-05
+ 0.000000039 5.885475547984e-05
+ 0.000000040 5.937148293015e-05
+ 0.000000041 5.985878000502e-05
+ 0.000000042 6.031862169039e-05
+ 0.000000043 6.075341138057e-05
+ 0.000000044 6.116562217358e-05
+ 0.000000045 6.155743845738e-05
+ 0.000000046 6.193098728545e-05
+ 0.000000047 6.228840211406e-05
+ 0.000000048 6.263167510042e-05
+ 0.000000049 6.296249921434e-05
+ 0.000000050 6.328296949505e-05
+ 0.000000051 6.359438062645e-05
+ 0.000000052 6.389825677616e-05
+ 0.000000053 6.419553872547e-05
+ 0.000000054 6.448752283177e-05
+ 0.000000055 6.477467541117e-05
+ 0.000000056 6.505780453153e-05
+ 0.000000057 6.533726540511e-05
+ 0.000000058 6.561324742506e-05
+ 0.000000059 6.588591495529e-05
+ 0.000000060 6.615490165132e-05
+ 0.000000061 6.642012143857e-05
+ 0.000000062 6.668107096630e-05
+ 0.000000063 6.693741772324e-05
+ 0.000000064 6.718833574269e-05
+ 0.000000065 6.743317542714e-05
+ 0.000000066 6.767149512598e-05
+ 0.000000067 6.790226732846e-05
+ 0.000000068 6.812487539719e-05
+ 0.000000069 6.833874358563e-05
+ 0.000000070 6.854281848064e-05
+ 0.000000071 6.873688660562e-05
+ 0.000000072 6.892017321661e-05
+ 0.000000073 6.909197429195e-05
+ 0.000000074 6.925234265509e-05
+ 0.000000075 6.940035091247e-05
+ 0.000000076 6.953610107303e-05
+ 0.000000077 6.965943946852e-05
+ 0.000000078 6.976999284234e-05
+ 0.000000079 6.986798834987e-05
)

* Dummy resistors
R_VG vg 0 1E12
R_VD vd 0 1E12
R_ACT_VD0.01 id_actual_vd0.01 0 1E12
R_PRED_VD0.01 id_pred_vd0.01 0 1E12
R_ACT_VD0.02 id_actual_vd0.02 0 1E12
R_PRED_VD0.02 id_pred_vd0.02 0 1E12
R_ACT_VD0.03 id_actual_vd0.03 0 1E12
R_PRED_VD0.03 id_pred_vd0.03 0 1E12
R_ACT_VD0.04 id_actual_vd0.04 0 1E12
R_PRED_VD0.04 id_pred_vd0.04 0 1E12
R_ACT_VD0.05 id_actual_vd0.05 0 1E12
R_PRED_VD0.05 id_pred_vd0.05 0 1E12
R_ACT_VD0.06 id_actual_vd0.06 0 1E12
R_PRED_VD0.06 id_pred_vd0.06 0 1E12
R_ACT_VD0.07 id_actual_vd0.07 0 1E12
R_PRED_VD0.07 id_pred_vd0.07 0 1E12
R_ACT_VD0.08 id_actual_vd0.08 0 1E12
R_PRED_VD0.08 id_pred_vd0.08 0 1E12
R_ACT_VD0.09 id_actual_vd0.09 0 1E12
R_PRED_VD0.09 id_pred_vd0.09 0 1E12
R_ACT_VD0.10 id_actual_vd0.10 0 1E12
R_PRED_VD0.10 id_pred_vd0.10 0 1E12
R_ACT_VD0.11 id_actual_vd0.11 0 1E12
R_PRED_VD0.11 id_pred_vd0.11 0 1E12
R_ACT_VD0.12 id_actual_vd0.12 0 1E12
R_PRED_VD0.12 id_pred_vd0.12 0 1E12
R_ACT_VD0.13 id_actual_vd0.13 0 1E12
R_PRED_VD0.13 id_pred_vd0.13 0 1E12
R_ACT_VD0.14 id_actual_vd0.14 0 1E12
R_PRED_VD0.14 id_pred_vd0.14 0 1E12
R_ACT_VD0.15 id_actual_vd0.15 0 1E12
R_PRED_VD0.15 id_pred_vd0.15 0 1E12
R_ACT_VD0.16 id_actual_vd0.16 0 1E12
R_PRED_VD0.16 id_pred_vd0.16 0 1E12
R_ACT_VD0.17 id_actual_vd0.17 0 1E12
R_PRED_VD0.17 id_pred_vd0.17 0 1E12
R_ACT_VD0.18 id_actual_vd0.18 0 1E12
R_PRED_VD0.18 id_pred_vd0.18 0 1E12
R_ACT_VD0.19 id_actual_vd0.19 0 1E12
R_PRED_VD0.19 id_pred_vd0.19 0 1E12
R_ACT_VD0.20 id_actual_vd0.20 0 1E12
R_PRED_VD0.20 id_pred_vd0.20 0 1E12
R_ACT_VD0.21 id_actual_vd0.21 0 1E12
R_PRED_VD0.21 id_pred_vd0.21 0 1E12
R_ACT_VD0.22 id_actual_vd0.22 0 1E12
R_PRED_VD0.22 id_pred_vd0.22 0 1E12
R_ACT_VD0.23 id_actual_vd0.23 0 1E12
R_PRED_VD0.23 id_pred_vd0.23 0 1E12
R_ACT_VD0.24 id_actual_vd0.24 0 1E12
R_PRED_VD0.24 id_pred_vd0.24 0 1E12
R_ACT_VD0.25 id_actual_vd0.25 0 1E12
R_PRED_VD0.25 id_pred_vd0.25 0 1E12
R_ACT_VD0.26 id_actual_vd0.26 0 1E12
R_PRED_VD0.26 id_pred_vd0.26 0 1E12
R_ACT_VD0.27 id_actual_vd0.27 0 1E12
R_PRED_VD0.27 id_pred_vd0.27 0 1E12
R_ACT_VD0.28 id_actual_vd0.28 0 1E12
R_PRED_VD0.28 id_pred_vd0.28 0 1E12
R_ACT_VD0.29 id_actual_vd0.29 0 1E12
R_PRED_VD0.29 id_pred_vd0.29 0 1E12
R_ACT_VD0.30 id_actual_vd0.30 0 1E12
R_PRED_VD0.30 id_pred_vd0.30 0 1E12
R_ACT_VD0.31 id_actual_vd0.31 0 1E12
R_PRED_VD0.31 id_pred_vd0.31 0 1E12
R_ACT_VD0.32 id_actual_vd0.32 0 1E12
R_PRED_VD0.32 id_pred_vd0.32 0 1E12
R_ACT_VD0.33 id_actual_vd0.33 0 1E12
R_PRED_VD0.33 id_pred_vd0.33 0 1E12
R_ACT_VD0.34 id_actual_vd0.34 0 1E12
R_PRED_VD0.34 id_pred_vd0.34 0 1E12
R_ACT_VD0.35 id_actual_vd0.35 0 1E12
R_PRED_VD0.35 id_pred_vd0.35 0 1E12
R_ACT_VD0.36 id_actual_vd0.36 0 1E12
R_PRED_VD0.36 id_pred_vd0.36 0 1E12
R_ACT_VD0.37 id_actual_vd0.37 0 1E12
R_PRED_VD0.37 id_pred_vd0.37 0 1E12
R_ACT_VD0.38 id_actual_vd0.38 0 1E12
R_PRED_VD0.38 id_pred_vd0.38 0 1E12
R_ACT_VD0.39 id_actual_vd0.39 0 1E12
R_PRED_VD0.39 id_pred_vd0.39 0 1E12
R_ACT_VD0.40 id_actual_vd0.40 0 1E12
R_PRED_VD0.40 id_pred_vd0.40 0 1E12
R_ACT_VD0.41 id_actual_vd0.41 0 1E12
R_PRED_VD0.41 id_pred_vd0.41 0 1E12
R_ACT_VD0.42 id_actual_vd0.42 0 1E12
R_PRED_VD0.42 id_pred_vd0.42 0 1E12
R_ACT_VD0.43 id_actual_vd0.43 0 1E12
R_PRED_VD0.43 id_pred_vd0.43 0 1E12
R_ACT_VD0.44 id_actual_vd0.44 0 1E12
R_PRED_VD0.44 id_pred_vd0.44 0 1E12
R_ACT_VD0.45 id_actual_vd0.45 0 1E12
R_PRED_VD0.45 id_pred_vd0.45 0 1E12
R_ACT_VD0.46 id_actual_vd0.46 0 1E12
R_PRED_VD0.46 id_pred_vd0.46 0 1E12
R_ACT_VD0.47 id_actual_vd0.47 0 1E12
R_PRED_VD0.47 id_pred_vd0.47 0 1E12
R_ACT_VD0.48 id_actual_vd0.48 0 1E12
R_PRED_VD0.48 id_pred_vd0.48 0 1E12
R_ACT_VD0.49 id_actual_vd0.49 0 1E12
R_PRED_VD0.49 id_pred_vd0.49 0 1E12
R_ACT_VD0.50 id_actual_vd0.50 0 1E12
R_PRED_VD0.50 id_pred_vd0.50 0 1E12
R_ACT_VD0.51 id_actual_vd0.51 0 1E12
R_PRED_VD0.51 id_pred_vd0.51 0 1E12
R_ACT_VD0.52 id_actual_vd0.52 0 1E12
R_PRED_VD0.52 id_pred_vd0.52 0 1E12
R_ACT_VD0.53 id_actual_vd0.53 0 1E12
R_PRED_VD0.53 id_pred_vd0.53 0 1E12
R_ACT_VD0.54 id_actual_vd0.54 0 1E12
R_PRED_VD0.54 id_pred_vd0.54 0 1E12
R_ACT_VD0.55 id_actual_vd0.55 0 1E12
R_PRED_VD0.55 id_pred_vd0.55 0 1E12
R_ACT_VD0.56 id_actual_vd0.56 0 1E12
R_PRED_VD0.56 id_pred_vd0.56 0 1E12
R_ACT_VD0.57 id_actual_vd0.57 0 1E12
R_PRED_VD0.57 id_pred_vd0.57 0 1E12
R_ACT_VD0.58 id_actual_vd0.58 0 1E12
R_PRED_VD0.58 id_pred_vd0.58 0 1E12
R_ACT_VD0.59 id_actual_vd0.59 0 1E12
R_PRED_VD0.59 id_pred_vd0.59 0 1E12
R_ACT_VD0.60 id_actual_vd0.60 0 1E12
R_PRED_VD0.60 id_pred_vd0.60 0 1E12
R_ACT_VD0.61 id_actual_vd0.61 0 1E12
R_PRED_VD0.61 id_pred_vd0.61 0 1E12
R_ACT_VD0.62 id_actual_vd0.62 0 1E12
R_PRED_VD0.62 id_pred_vd0.62 0 1E12
R_ACT_VD0.63 id_actual_vd0.63 0 1E12
R_PRED_VD0.63 id_pred_vd0.63 0 1E12
R_ACT_VD0.64 id_actual_vd0.64 0 1E12
R_PRED_VD0.64 id_pred_vd0.64 0 1E12
R_ACT_VD0.65 id_actual_vd0.65 0 1E12
R_PRED_VD0.65 id_pred_vd0.65 0 1E12
R_ACT_VD0.66 id_actual_vd0.66 0 1E12
R_PRED_VD0.66 id_pred_vd0.66 0 1E12
R_ACT_VD0.67 id_actual_vd0.67 0 1E12
R_PRED_VD0.67 id_pred_vd0.67 0 1E12
R_ACT_VD0.68 id_actual_vd0.68 0 1E12
R_PRED_VD0.68 id_pred_vd0.68 0 1E12
R_ACT_VD0.69 id_actual_vd0.69 0 1E12
R_PRED_VD0.69 id_pred_vd0.69 0 1E12
R_ACT_VD0.70 id_actual_vd0.70 0 1E12
R_PRED_VD0.70 id_pred_vd0.70 0 1E12
R_ACT_VD0.71 id_actual_vd0.71 0 1E12
R_PRED_VD0.71 id_pred_vd0.71 0 1E12
R_ACT_VD0.72 id_actual_vd0.72 0 1E12
R_PRED_VD0.72 id_pred_vd0.72 0 1E12
R_ACT_VD0.73 id_actual_vd0.73 0 1E12
R_PRED_VD0.73 id_pred_vd0.73 0 1E12
R_ACT_VD0.74 id_actual_vd0.74 0 1E12
R_PRED_VD0.74 id_pred_vd0.74 0 1E12
R_ACT_VD0.75 id_actual_vd0.75 0 1E12
R_PRED_VD0.75 id_pred_vd0.75 0 1E12
R_ACT_VD0.76 id_actual_vd0.76 0 1E12
R_PRED_VD0.76 id_pred_vd0.76 0 1E12
R_ACT_VD0.77 id_actual_vd0.77 0 1E12
R_PRED_VD0.77 id_pred_vd0.77 0 1E12
R_ACT_VD0.78 id_actual_vd0.78 0 1E12
R_PRED_VD0.78 id_pred_vd0.78 0 1E12
R_ACT_VD0.79 id_actual_vd0.79 0 1E12
R_PRED_VD0.79 id_pred_vd0.79 0 1E12
R_ACT_VD0.80 id_actual_vd0.80 0 1E12
R_PRED_VD0.80 id_pred_vd0.80 0 1E12
R_ACT_VG0.01 id_actual_vg0.01 0 1E12
R_PRED_VG0.01 id_pred_vg0.01 0 1E12
R_ACT_VG0.02 id_actual_vg0.02 0 1E12
R_PRED_VG0.02 id_pred_vg0.02 0 1E12
R_ACT_VG0.03 id_actual_vg0.03 0 1E12
R_PRED_VG0.03 id_pred_vg0.03 0 1E12
R_ACT_VG0.04 id_actual_vg0.04 0 1E12
R_PRED_VG0.04 id_pred_vg0.04 0 1E12
R_ACT_VG0.05 id_actual_vg0.05 0 1E12
R_PRED_VG0.05 id_pred_vg0.05 0 1E12
R_ACT_VG0.06 id_actual_vg0.06 0 1E12
R_PRED_VG0.06 id_pred_vg0.06 0 1E12
R_ACT_VG0.07 id_actual_vg0.07 0 1E12
R_PRED_VG0.07 id_pred_vg0.07 0 1E12
R_ACT_VG0.08 id_actual_vg0.08 0 1E12
R_PRED_VG0.08 id_pred_vg0.08 0 1E12
R_ACT_VG0.09 id_actual_vg0.09 0 1E12
R_PRED_VG0.09 id_pred_vg0.09 0 1E12
R_ACT_VG0.10 id_actual_vg0.10 0 1E12
R_PRED_VG0.10 id_pred_vg0.10 0 1E12
R_ACT_VG0.11 id_actual_vg0.11 0 1E12
R_PRED_VG0.11 id_pred_vg0.11 0 1E12
R_ACT_VG0.12 id_actual_vg0.12 0 1E12
R_PRED_VG0.12 id_pred_vg0.12 0 1E12
R_ACT_VG0.13 id_actual_vg0.13 0 1E12
R_PRED_VG0.13 id_pred_vg0.13 0 1E12
R_ACT_VG0.14 id_actual_vg0.14 0 1E12
R_PRED_VG0.14 id_pred_vg0.14 0 1E12
R_ACT_VG0.15 id_actual_vg0.15 0 1E12
R_PRED_VG0.15 id_pred_vg0.15 0 1E12
R_ACT_VG0.16 id_actual_vg0.16 0 1E12
R_PRED_VG0.16 id_pred_vg0.16 0 1E12
R_ACT_VG0.17 id_actual_vg0.17 0 1E12
R_PRED_VG0.17 id_pred_vg0.17 0 1E12
R_ACT_VG0.18 id_actual_vg0.18 0 1E12
R_PRED_VG0.18 id_pred_vg0.18 0 1E12
R_ACT_VG0.19 id_actual_vg0.19 0 1E12
R_PRED_VG0.19 id_pred_vg0.19 0 1E12
R_ACT_VG0.20 id_actual_vg0.20 0 1E12
R_PRED_VG0.20 id_pred_vg0.20 0 1E12
R_ACT_VG0.21 id_actual_vg0.21 0 1E12
R_PRED_VG0.21 id_pred_vg0.21 0 1E12
R_ACT_VG0.22 id_actual_vg0.22 0 1E12
R_PRED_VG0.22 id_pred_vg0.22 0 1E12
R_ACT_VG0.23 id_actual_vg0.23 0 1E12
R_PRED_VG0.23 id_pred_vg0.23 0 1E12
R_ACT_VG0.24 id_actual_vg0.24 0 1E12
R_PRED_VG0.24 id_pred_vg0.24 0 1E12
R_ACT_VG0.25 id_actual_vg0.25 0 1E12
R_PRED_VG0.25 id_pred_vg0.25 0 1E12
R_ACT_VG0.26 id_actual_vg0.26 0 1E12
R_PRED_VG0.26 id_pred_vg0.26 0 1E12
R_ACT_VG0.27 id_actual_vg0.27 0 1E12
R_PRED_VG0.27 id_pred_vg0.27 0 1E12
R_ACT_VG0.28 id_actual_vg0.28 0 1E12
R_PRED_VG0.28 id_pred_vg0.28 0 1E12
R_ACT_VG0.29 id_actual_vg0.29 0 1E12
R_PRED_VG0.29 id_pred_vg0.29 0 1E12
R_ACT_VG0.30 id_actual_vg0.30 0 1E12
R_PRED_VG0.30 id_pred_vg0.30 0 1E12
R_ACT_VG0.31 id_actual_vg0.31 0 1E12
R_PRED_VG0.31 id_pred_vg0.31 0 1E12
R_ACT_VG0.32 id_actual_vg0.32 0 1E12
R_PRED_VG0.32 id_pred_vg0.32 0 1E12
R_ACT_VG0.33 id_actual_vg0.33 0 1E12
R_PRED_VG0.33 id_pred_vg0.33 0 1E12
R_ACT_VG0.34 id_actual_vg0.34 0 1E12
R_PRED_VG0.34 id_pred_vg0.34 0 1E12
R_ACT_VG0.35 id_actual_vg0.35 0 1E12
R_PRED_VG0.35 id_pred_vg0.35 0 1E12
R_ACT_VG0.36 id_actual_vg0.36 0 1E12
R_PRED_VG0.36 id_pred_vg0.36 0 1E12
R_ACT_VG0.37 id_actual_vg0.37 0 1E12
R_PRED_VG0.37 id_pred_vg0.37 0 1E12
R_ACT_VG0.38 id_actual_vg0.38 0 1E12
R_PRED_VG0.38 id_pred_vg0.38 0 1E12
R_ACT_VG0.39 id_actual_vg0.39 0 1E12
R_PRED_VG0.39 id_pred_vg0.39 0 1E12
R_ACT_VG0.40 id_actual_vg0.40 0 1E12
R_PRED_VG0.40 id_pred_vg0.40 0 1E12
R_ACT_VG0.41 id_actual_vg0.41 0 1E12
R_PRED_VG0.41 id_pred_vg0.41 0 1E12
R_ACT_VG0.42 id_actual_vg0.42 0 1E12
R_PRED_VG0.42 id_pred_vg0.42 0 1E12
R_ACT_VG0.43 id_actual_vg0.43 0 1E12
R_PRED_VG0.43 id_pred_vg0.43 0 1E12
R_ACT_VG0.44 id_actual_vg0.44 0 1E12
R_PRED_VG0.44 id_pred_vg0.44 0 1E12
R_ACT_VG0.45 id_actual_vg0.45 0 1E12
R_PRED_VG0.45 id_pred_vg0.45 0 1E12
R_ACT_VG0.46 id_actual_vg0.46 0 1E12
R_PRED_VG0.46 id_pred_vg0.46 0 1E12
R_ACT_VG0.47 id_actual_vg0.47 0 1E12
R_PRED_VG0.47 id_pred_vg0.47 0 1E12
R_ACT_VG0.48 id_actual_vg0.48 0 1E12
R_PRED_VG0.48 id_pred_vg0.48 0 1E12
R_ACT_VG0.49 id_actual_vg0.49 0 1E12
R_PRED_VG0.49 id_pred_vg0.49 0 1E12
R_ACT_VG0.50 id_actual_vg0.50 0 1E12
R_PRED_VG0.50 id_pred_vg0.50 0 1E12
R_ACT_VG0.51 id_actual_vg0.51 0 1E12
R_PRED_VG0.51 id_pred_vg0.51 0 1E12
R_ACT_VG0.52 id_actual_vg0.52 0 1E12
R_PRED_VG0.52 id_pred_vg0.52 0 1E12
R_ACT_VG0.53 id_actual_vg0.53 0 1E12
R_PRED_VG0.53 id_pred_vg0.53 0 1E12
R_ACT_VG0.54 id_actual_vg0.54 0 1E12
R_PRED_VG0.54 id_pred_vg0.54 0 1E12
R_ACT_VG0.55 id_actual_vg0.55 0 1E12
R_PRED_VG0.55 id_pred_vg0.55 0 1E12
R_ACT_VG0.56 id_actual_vg0.56 0 1E12
R_PRED_VG0.56 id_pred_vg0.56 0 1E12
R_ACT_VG0.57 id_actual_vg0.57 0 1E12
R_PRED_VG0.57 id_pred_vg0.57 0 1E12
R_ACT_VG0.58 id_actual_vg0.58 0 1E12
R_PRED_VG0.58 id_pred_vg0.58 0 1E12
R_ACT_VG0.59 id_actual_vg0.59 0 1E12
R_PRED_VG0.59 id_pred_vg0.59 0 1E12
R_ACT_VG0.60 id_actual_vg0.60 0 1E12
R_PRED_VG0.60 id_pred_vg0.60 0 1E12
R_ACT_VG0.61 id_actual_vg0.61 0 1E12
R_PRED_VG0.61 id_pred_vg0.61 0 1E12
R_ACT_VG0.62 id_actual_vg0.62 0 1E12
R_PRED_VG0.62 id_pred_vg0.62 0 1E12
R_ACT_VG0.63 id_actual_vg0.63 0 1E12
R_PRED_VG0.63 id_pred_vg0.63 0 1E12
R_ACT_VG0.64 id_actual_vg0.64 0 1E12
R_PRED_VG0.64 id_pred_vg0.64 0 1E12
R_ACT_VG0.65 id_actual_vg0.65 0 1E12
R_PRED_VG0.65 id_pred_vg0.65 0 1E12
R_ACT_VG0.66 id_actual_vg0.66 0 1E12
R_PRED_VG0.66 id_pred_vg0.66 0 1E12
R_ACT_VG0.67 id_actual_vg0.67 0 1E12
R_PRED_VG0.67 id_pred_vg0.67 0 1E12
R_ACT_VG0.68 id_actual_vg0.68 0 1E12
R_PRED_VG0.68 id_pred_vg0.68 0 1E12
R_ACT_VG0.69 id_actual_vg0.69 0 1E12
R_PRED_VG0.69 id_pred_vg0.69 0 1E12
R_ACT_VG0.70 id_actual_vg0.70 0 1E12
R_PRED_VG0.70 id_pred_vg0.70 0 1E12
R_ACT_VG0.71 id_actual_vg0.71 0 1E12
R_PRED_VG0.71 id_pred_vg0.71 0 1E12
R_ACT_VG0.72 id_actual_vg0.72 0 1E12
R_PRED_VG0.72 id_pred_vg0.72 0 1E12
R_ACT_VG0.73 id_actual_vg0.73 0 1E12
R_PRED_VG0.73 id_pred_vg0.73 0 1E12
R_ACT_VG0.74 id_actual_vg0.74 0 1E12
R_PRED_VG0.74 id_pred_vg0.74 0 1E12
R_ACT_VG0.75 id_actual_vg0.75 0 1E12
R_PRED_VG0.75 id_pred_vg0.75 0 1E12
R_ACT_VG0.76 id_actual_vg0.76 0 1E12
R_PRED_VG0.76 id_pred_vg0.76 0 1E12
R_ACT_VG0.77 id_actual_vg0.77 0 1E12
R_PRED_VG0.77 id_pred_vg0.77 0 1E12
R_ACT_VG0.78 id_actual_vg0.78 0 1E12
R_PRED_VG0.78 id_pred_vg0.78 0 1E12
R_ACT_VG0.79 id_actual_vg0.79 0 1E12
R_PRED_VG0.79 id_pred_vg0.79 0 1E12
R_ACT_VG0.80 id_actual_vg0.80 0 1E12
R_PRED_VG0.80 id_pred_vg0.80 0 1E12

.tran 1e-10 0.000000080

* Plotting Hints:
* For Id-Vg plots: plot I(I_ACTUAL_VD0.80) vs V(vg) and I(I_PRED_VD0.80) vs V(vg)
* For Id-Vd plots: plot I(I_ACTUAL_VG0.80) vs V(vd) and I(I_PRED_VG0.80) vs V(vd)

.end
